REMARK VINA RESULT:       0.0      9.103     11.284
REMARK SMILES CC(=O)Oc1ccccc1C(=O)O
REMARK SMILES IDX 5 1 6 2 7 3 8 4 9 5 10 6 4 7 2 8 1 9 3 10 11 11 12 12 13 13
REMARK H PARENT 13 14
ROOT
ATOM      1  C   UNL     1      10.992 -34.176 -11.929  1.00  0.00     0.145 A 
ATOM      2  C   UNL     1       9.721 -34.163 -11.376  1.00  0.00     0.048 A 
ATOM      3  C   UNL     1       8.707 -34.831 -12.067  1.00  0.00     0.004 A 
ATOM      4  C   UNL     1       8.934 -35.478 -13.243  1.00  0.00     0.001 A 
ATOM      5  C   UNL     1      10.224 -35.468 -13.767  1.00  0.00     0.019 A 
ATOM      6  C   UNL     1      11.259 -34.821 -13.120  1.00  0.00     0.102 A 
ENDROOT
BRANCH   1   7
ATOM      7  O   UNL     1      12.058 -33.536 -11.308  1.00  0.00    -0.426 OA
BRANCH   7   8
ATOM      8  C   UNL     1      12.080 -32.160 -11.140  1.00  0.00     0.308 C 
ATOM      9  C   UNL     1      11.885 -31.498  -9.820  1.00  0.00     0.139 C 
ATOM     10  O   UNL     1      12.281 -31.487 -12.204  1.00  0.00    -0.252 OA
ENDBRANCH   7   8
ENDBRANCH   1   7
BRANCH   6  11
ATOM     11  C   UNL     1      12.598 -34.834 -13.700  1.00  0.00     0.339 C 
ATOM     12  O   UNL     1      13.208 -35.922 -13.844  1.00  0.00    -0.246 OA
BRANCH  11  13
ATOM     13  O   UNL     1      13.200 -33.670 -14.087  1.00  0.00    -0.478 OA
ATOM     14  H   UNL     1      13.219 -33.431 -14.993  1.00  0.00     0.297 HD
ENDBRANCH  11  13
ENDBRANCH   6  11
TORSDOF 4
