REMARK VINA RESULT:       0.0      6.582      8.156
REMARK SMILES CC(=O)Oc1ccccc1C(=O)O
REMARK SMILES IDX 5 1 6 2 7 3 8 4 9 5 10 6 4 7 2 8 1 9 3 10 11 11 12 12 13 13
REMARK H PARENT 13 14
ROOT
ATOM      1  C   UNL     1      15.743 -31.806 -10.830  1.00  0.00     0.145 A 
ATOM      2  C   UNL     1      15.702 -31.380  -9.512  1.00  0.00     0.048 A 
ATOM      3  C   UNL     1      16.466 -32.086  -8.579  1.00  0.00     0.004 A 
ATOM      4  C   UNL     1      17.230 -33.157  -8.928  1.00  0.00     0.001 A 
ATOM      5  C   UNL     1      17.245 -33.555 -10.262  1.00  0.00     0.019 A 
ATOM      6  C   UNL     1      16.506 -32.888 -11.220  1.00  0.00     0.102 A 
ENDROOT
BRANCH   1   7
ATOM      7  O   UNL     1      15.014 -31.161 -11.822  1.00  0.00    -0.426 OA
BRANCH   7   8
ATOM      8  C   UNL     1      13.627 -31.144 -11.808  1.00  0.00     0.308 C 
ATOM      9  C   UNL     1      12.831 -29.929 -11.477  1.00  0.00     0.139 C 
ATOM     10  O   UNL     1      13.068 -32.252 -12.101  1.00  0.00    -0.252 OA
ENDBRANCH   7   8
ENDBRANCH   1   7
BRANCH   6  11
ATOM     11  C   UNL     1      16.548 -33.334 -12.609  1.00  0.00     0.339 C 
ATOM     12  O   UNL     1      17.630 -33.300 -13.246  1.00  0.00    -0.246 OA
BRANCH  11  13
ATOM     13  O   UNL     1      15.418 -33.789 -13.228  1.00  0.00    -0.478 OA
ATOM     14  H   UNL     1      15.203 -34.700 -13.201  1.00  0.00     0.297 HD
ENDBRANCH  11  13
ENDBRANCH   6  11
TORSDOF 4
