MODEL 1
REMARK VINA RESULT:      -0.0      0.000      0.000
REMARK SMILES CC(=O)Oc1ccccc1C(=O)O
REMARK SMILES IDX 5 1 6 2 7 3 8 4 9 5 10 6 4 7 2 8 1 9 3 10 11 11 12 12 13 13
REMARK H PARENT 13 14
ROOT
ATOM      1  C   UNL     1      21.624 -36.880 -13.725  1.00  0.00     0.145 A 
ATOM      2  C   UNL     1      22.218 -36.857 -14.977  1.00  0.00     0.048 A 
ATOM      3  C   UNL     1      23.468 -36.244 -15.090  1.00  0.00     0.004 A 
ATOM      4  C   UNL     1      24.100 -35.681 -14.023  1.00  0.00     0.001 A 
ATOM      5  C   UNL     1      23.471 -35.724 -12.782  1.00  0.00     0.019 A 
ATOM      6  C   UNL     1      22.235 -36.319 -12.621  1.00  0.00     0.102 A 
ENDROOT
BRANCH   1   7
ATOM      7  O   UNL     1      20.381 -37.469 -13.524  1.00  0.00    -0.426 OA
BRANCH   7   8
ATOM      8  C   UNL     1      19.236 -36.968 -14.124  1.00  0.00     0.308 C 
ATOM      9  C   UNL     1      18.543 -37.651 -15.251  1.00  0.00     0.139 C 
ATOM     10  O   UNL     1      18.806 -35.868 -13.641  1.00  0.00    -0.252 OA
ENDBRANCH   7   8
ENDBRANCH   1   7
BRANCH   6  11
ATOM     11  C   UNL     1      21.608 -36.344 -11.304  1.00  0.00     0.339 C 
ATOM     12  O   UNL     1      22.161 -36.959 -10.358  1.00  0.00    -0.246 OA
BRANCH  11  13
ATOM     13  O   UNL     1      20.420 -35.705 -11.086  1.00  0.00    -0.478 OA
ATOM     14  H   UNL     1      20.057 -35.152 -11.748  1.00  0.00     0.297 HD
ENDBRANCH  11  13
ENDBRANCH   6  11
TORSDOF 4
ENDMDL
MODEL 2
REMARK VINA RESULT:      -0.0      4.325      5.913
REMARK SMILES CC(=O)Oc1ccccc1C(=O)O
REMARK SMILES IDX 5 1 6 2 7 3 8 4 9 5 10 6 4 7 2 8 1 9 3 10 11 11 12 12 13 13
REMARK H PARENT 13 14
ROOT
ATOM      1  C   UNL     1      19.465 -39.095 -10.114  1.00  0.00     0.145 A 
ATOM      2  C   UNL     1      18.390 -38.312  -9.722  1.00  0.00     0.048 A 
ATOM      3  C   UNL     1      17.592 -38.783  -8.676  1.00  0.00     0.004 A 
ATOM      4  C   UNL     1      17.841 -39.966  -8.050  1.00  0.00     0.001 A 
ATOM      5  C   UNL     1      18.929 -40.724  -8.472  1.00  0.00     0.019 A 
ATOM      6  C   UNL     1      19.747 -40.300  -9.502  1.00  0.00     0.102 A 
ENDROOT
BRANCH   1   7
ATOM      7  O   UNL     1      20.309 -38.701 -11.145  1.00  0.00    -0.426 OA
BRANCH   7   8
ATOM      8  C   UNL     1      19.851 -38.572 -12.448  1.00  0.00     0.308 C 
ATOM      9  C   UNL     1      19.651 -37.255 -13.113  1.00  0.00     0.139 C 
ATOM     10  O   UNL     1      19.609 -39.670 -13.049  1.00  0.00    -0.252 OA
ENDBRANCH   7   8
ENDBRANCH   1   7
BRANCH   6  11
ATOM     11  C   UNL     1      20.879 -41.122  -9.916  1.00  0.00     0.339 C 
ATOM     12  O   UNL     1      21.813 -41.354  -9.109  1.00  0.00    -0.246 OA
BRANCH  11  13
ATOM     13  O   UNL     1      20.936 -41.643 -11.178  1.00  0.00    -0.478 OA
ATOM     14  H   UNL     1      20.203 -42.113 -11.524  1.00  0.00     0.297 HD
ENDBRANCH  11  13
ENDBRANCH   6  11
TORSDOF 4
ENDMDL
MODEL 3
REMARK VINA RESULT:      -0.0     11.902     13.276
REMARK SMILES CC(=O)Oc1ccccc1C(=O)O
REMARK SMILES IDX 5 1 6 2 7 3 8 4 9 5 10 6 4 7 2 8 1 9 3 10 11 11 12 12 13 13
REMARK H PARENT 13 14
ROOT
ATOM      1  C   UNL     1      12.549 -30.435  -6.888  1.00  0.00     0.145 A 
ATOM      2  C   UNL     1      13.904 -30.185  -6.739  1.00  0.00     0.048 A 
ATOM      3  C   UNL     1      14.311 -29.474  -5.607  1.00  0.00     0.004 A 
ATOM      4  C   UNL     1      13.428 -29.033  -4.671  1.00  0.00     0.001 A 
ATOM      5  C   UNL     1      12.075 -29.303  -4.855  1.00  0.00     0.019 A 
ATOM      6  C   UNL     1      11.624 -30.002  -5.958  1.00  0.00     0.102 A 
ENDROOT
BRANCH   1   7
ATOM      7  O   UNL     1      12.058 -31.134  -7.984  1.00  0.00    -0.426 OA
BRANCH   7   8
ATOM      8  C   UNL     1      12.168 -30.632  -9.272  1.00  0.00     0.308 C 
ATOM      9  C   UNL     1      13.108 -31.188 -10.285  1.00  0.00     0.139 C 
ATOM     10  O   UNL     1      11.400 -29.650  -9.540  1.00  0.00    -0.252 OA
ENDBRANCH   7   8
ENDBRANCH   1   7
BRANCH   6  11
ATOM     11  C   UNL     1      10.198 -30.267  -6.117  1.00  0.00     0.339 C 
ATOM     12  O   UNL     1       9.594 -30.974  -5.272  1.00  0.00    -0.246 OA
BRANCH  11  13
ATOM     13  O   UNL     1       9.509 -29.754  -7.179  1.00  0.00    -0.478 OA
ATOM     14  H   UNL     1       9.904 -29.102  -7.724  1.00  0.00     0.297 HD
ENDBRANCH  11  13
ENDBRANCH   6  11
TORSDOF 4
ENDMDL
MODEL 4
REMARK VINA RESULT:      -0.0      7.151      8.477
REMARK SMILES CC(=O)Oc1ccccc1C(=O)O
REMARK SMILES IDX 5 1 6 2 7 3 8 4 9 5 10 6 4 7 2 8 1 9 3 10 11 11 12 12 13 13
REMARK H PARENT 13 14
ROOT
ATOM      1  C   UNL     1      14.610 -35.453  -8.357  1.00  0.00     0.145 A 
ATOM      2  C   UNL     1      13.877 -36.356  -7.601  1.00  0.00     0.048 A 
ATOM      3  C   UNL     1      14.353 -36.669  -6.326  1.00  0.00     0.004 A 
ATOM      4  C   UNL     1      15.493 -36.123  -5.822  1.00  0.00     0.001 A 
ATOM      5  C   UNL     1      16.201 -35.221  -6.610  1.00  0.00     0.019 A 
ATOM      6  C   UNL     1      15.771 -34.879  -7.878  1.00  0.00     0.102 A 
ENDROOT
BRANCH   1   7
ATOM      7  O   UNL     1      14.208 -35.086  -9.636  1.00  0.00    -0.426 OA
BRANCH   7   8
ATOM      8  C   UNL     1      14.160 -36.005 -10.673  1.00  0.00     0.308 C 
ATOM      9  C   UNL     1      12.884 -36.532 -11.234  1.00  0.00     0.139 C 
ATOM     10  O   UNL     1      15.293 -36.377 -11.122  1.00  0.00    -0.252 OA
ENDBRANCH   7   8
ENDBRANCH   1   7
BRANCH   6  11
ATOM     11  C   UNL     1      16.540 -33.929  -8.675  1.00  0.00     0.339 C 
ATOM     12  O   UNL     1      16.683 -32.747  -8.275  1.00  0.00    -0.246 OA
BRANCH  11  13
ATOM     13  O   UNL     1      17.107 -34.312  -9.858  1.00  0.00    -0.478 OA
ATOM     14  H   UNL     1      17.294 -33.672 -10.516  1.00  0.00     0.297 HD
ENDBRANCH  11  13
ENDBRANCH   6  11
TORSDOF 4
ENDMDL
MODEL 5
REMARK VINA RESULT:       0.0      9.103     11.284
REMARK SMILES CC(=O)Oc1ccccc1C(=O)O
REMARK SMILES IDX 5 1 6 2 7 3 8 4 9 5 10 6 4 7 2 8 1 9 3 10 11 11 12 12 13 13
REMARK H PARENT 13 14
ROOT
ATOM      1  C   UNL     1      10.992 -34.176 -11.929  1.00  0.00     0.145 A 
ATOM      2  C   UNL     1       9.721 -34.163 -11.376  1.00  0.00     0.048 A 
ATOM      3  C   UNL     1       8.707 -34.831 -12.067  1.00  0.00     0.004 A 
ATOM      4  C   UNL     1       8.934 -35.478 -13.243  1.00  0.00     0.001 A 
ATOM      5  C   UNL     1      10.224 -35.468 -13.767  1.00  0.00     0.019 A 
ATOM      6  C   UNL     1      11.259 -34.821 -13.120  1.00  0.00     0.102 A 
ENDROOT
BRANCH   1   7
ATOM      7  O   UNL     1      12.058 -33.536 -11.308  1.00  0.00    -0.426 OA
BRANCH   7   8
ATOM      8  C   UNL     1      12.080 -32.160 -11.140  1.00  0.00     0.308 C 
ATOM      9  C   UNL     1      11.885 -31.498  -9.820  1.00  0.00     0.139 C 
ATOM     10  O   UNL     1      12.281 -31.487 -12.204  1.00  0.00    -0.252 OA
ENDBRANCH   7   8
ENDBRANCH   1   7
BRANCH   6  11
ATOM     11  C   UNL     1      12.598 -34.834 -13.700  1.00  0.00     0.339 C 
ATOM     12  O   UNL     1      13.208 -35.922 -13.844  1.00  0.00    -0.246 OA
BRANCH  11  13
ATOM     13  O   UNL     1      13.200 -33.670 -14.087  1.00  0.00    -0.478 OA
ATOM     14  H   UNL     1      13.219 -33.431 -14.993  1.00  0.00     0.297 HD
ENDBRANCH  11  13
ENDBRANCH   6  11
TORSDOF 4
ENDMDL
MODEL 6
REMARK VINA RESULT:       0.0      8.575      9.671
REMARK SMILES CC(=O)Oc1ccccc1C(=O)O
REMARK SMILES IDX 5 1 6 2 7 3 8 4 9 5 10 6 4 7 2 8 1 9 3 10 11 11 12 12 13 13
REMARK H PARENT 13 14
ROOT
ATOM      1  C   UNL     1      21.118 -27.614 -10.271  1.00  0.00     0.145 A 
ATOM      2  C   UNL     1      21.777 -26.794 -11.174  1.00  0.00     0.048 A 
ATOM      3  C   UNL     1      21.157 -26.555 -12.403  1.00  0.00     0.004 A 
ATOM      4  C   UNL     1      19.951 -27.097 -12.726  1.00  0.00     0.001 A 
ATOM      5  C   UNL     1      19.321 -27.915 -11.793  1.00  0.00     0.019 A 
ATOM      6  C   UNL     1      19.894 -28.181 -10.564  1.00  0.00     0.102 A 
ENDROOT
BRANCH   1   7
ATOM      7  O   UNL     1      21.663 -27.904  -9.026  1.00  0.00    -0.426 OA
BRANCH   7   8
ATOM      8  C   UNL     1      22.847 -28.616  -8.901  1.00  0.00     0.308 C 
ATOM      9  C   UNL     1      24.133 -27.990  -8.486  1.00  0.00     0.139 C 
ATOM     10  O   UNL     1      22.763 -29.860  -9.167  1.00  0.00    -0.252 OA
ENDBRANCH   7   8
ENDBRANCH   1   7
BRANCH   6  11
ATOM     11  C   UNL     1      19.203 -29.043  -9.611  1.00  0.00     0.339 C 
ATOM     12  O   UNL     1      18.085 -28.699  -9.151  1.00  0.00    -0.246 OA
BRANCH  11  13
ATOM     13  O   UNL     1      19.759 -30.225  -9.211  1.00  0.00    -0.478 OA
ATOM     14  H   UNL     1      20.500 -30.572  -9.666  1.00  0.00     0.297 HD
ENDBRANCH  11  13
ENDBRANCH   6  11
TORSDOF 4
ENDMDL
MODEL 7
REMARK VINA RESULT:       0.0      6.582      8.156
REMARK SMILES CC(=O)Oc1ccccc1C(=O)O
REMARK SMILES IDX 5 1 6 2 7 3 8 4 9 5 10 6 4 7 2 8 1 9 3 10 11 11 12 12 13 13
REMARK H PARENT 13 14
ROOT
ATOM      1  C   UNL     1      15.743 -31.806 -10.830  1.00  0.00     0.145 A 
ATOM      2  C   UNL     1      15.702 -31.380  -9.512  1.00  0.00     0.048 A 
ATOM      3  C   UNL     1      16.466 -32.086  -8.579  1.00  0.00     0.004 A 
ATOM      4  C   UNL     1      17.230 -33.157  -8.928  1.00  0.00     0.001 A 
ATOM      5  C   UNL     1      17.245 -33.555 -10.262  1.00  0.00     0.019 A 
ATOM      6  C   UNL     1      16.506 -32.888 -11.220  1.00  0.00     0.102 A 
ENDROOT
BRANCH   1   7
ATOM      7  O   UNL     1      15.014 -31.161 -11.822  1.00  0.00    -0.426 OA
BRANCH   7   8
ATOM      8  C   UNL     1      13.627 -31.144 -11.808  1.00  0.00     0.308 C 
ATOM      9  C   UNL     1      12.831 -29.929 -11.477  1.00  0.00     0.139 C 
ATOM     10  O   UNL     1      13.068 -32.252 -12.101  1.00  0.00    -0.252 OA
ENDBRANCH   7   8
ENDBRANCH   1   7
BRANCH   6  11
ATOM     11  C   UNL     1      16.548 -33.334 -12.609  1.00  0.00     0.339 C 
ATOM     12  O   UNL     1      17.630 -33.300 -13.246  1.00  0.00    -0.246 OA
BRANCH  11  13
ATOM     13  O   UNL     1      15.418 -33.789 -13.228  1.00  0.00    -0.478 OA
ATOM     14  H   UNL     1      15.203 -34.700 -13.201  1.00  0.00     0.297 HD
ENDBRANCH  11  13
ENDBRANCH   6  11
TORSDOF 4
ENDMDL
MODEL 8
REMARK VINA RESULT:       0.0      9.056      9.985
REMARK SMILES CC(=O)Oc1ccccc1C(=O)O
REMARK SMILES IDX 5 1 6 2 7 3 8 4 9 5 10 6 4 7 2 8 1 9 3 10 11 11 12 12 13 13
REMARK H PARENT 13 14
ROOT
ATOM      1  C   UNL     1      14.018 -30.914 -11.411  1.00  0.00     0.145 A 
ATOM      2  C   UNL     1      14.264 -32.230 -11.052  1.00  0.00     0.048 A 
ATOM      3  C   UNL     1      14.924 -32.460  -9.843  1.00  0.00     0.004 A 
ATOM      4  C   UNL     1      15.323 -31.445  -9.029  1.00  0.00     0.001 A 
ATOM      5  C   UNL     1      15.058 -30.137  -9.423  1.00  0.00     0.019 A 
ATOM      6  C   UNL     1      14.408 -29.859 -10.610  1.00  0.00     0.102 A 
ENDROOT
BRANCH   1   7
ATOM      7  O   UNL     1      13.367 -30.596 -12.596  1.00  0.00    -0.426 OA
BRANCH   7   8
ATOM      8  C   UNL     1      13.925 -30.891 -13.831  1.00  0.00     0.308 C 
ATOM      9  C   UNL     1      13.416 -31.975 -14.716  1.00  0.00     0.139 C 
ATOM     10  O   UNL     1      14.917 -30.163 -14.167  1.00  0.00    -0.252 OA
ENDBRANCH   7   8
ENDBRANCH   1   7
BRANCH   6  11
ATOM     11  C   UNL     1      14.149 -28.474 -10.989  1.00  0.00     0.339 C 
ATOM     12  O   UNL     1      13.404 -27.757 -10.274  1.00  0.00    -0.246 OA
BRANCH  11  13
ATOM     13  O   UNL     1      14.707 -27.945 -12.118  1.00  0.00    -0.478 OA
ATOM     14  H   UNL     1      14.593 -27.037 -12.316  1.00  0.00     0.297 HD
ENDBRANCH  11  13
ENDBRANCH   6  11
TORSDOF 4
ENDMDL
MODEL 9
REMARK VINA RESULT:       0.0      8.740      9.953
REMARK SMILES CC(=O)Oc1ccccc1C(=O)O
REMARK SMILES IDX 5 1 6 2 7 3 8 4 9 5 10 6 4 7 2 8 1 9 3 10 11 11 12 12 13 13
REMARK H PARENT 13 14
ROOT
ATOM      1  C   UNL     1      15.264 -29.402 -13.365  1.00  0.00     0.145 A 
ATOM      2  C   UNL     1      16.593 -29.009 -13.401  1.00  0.00     0.048 A 
ATOM      3  C   UNL     1      17.255 -29.073 -14.630  1.00  0.00     0.004 A 
ATOM      4  C   UNL     1      16.639 -29.504 -15.765  1.00  0.00     0.001 A 
ATOM      5  C   UNL     1      15.304 -29.891 -15.689  1.00  0.00     0.019 A 
ATOM      6  C   UNL     1      14.607 -29.845 -14.496  1.00  0.00     0.102 A 
ENDROOT
BRANCH   1   7
ATOM      7  O   UNL     1      14.531 -29.370 -12.185  1.00  0.00    -0.426 OA
BRANCH   7   8
ATOM      8  C   UNL     1      14.861 -30.175 -11.105  1.00  0.00     0.308 C 
ATOM      9  C   UNL     1      15.480 -29.648  -9.857  1.00  0.00     0.139 C 
ATOM     10  O   UNL     1      14.595 -31.413 -11.250  1.00  0.00    -0.252 OA
ENDBRANCH   7   8
ENDBRANCH   1   7
BRANCH   6  11
ATOM     11  C   UNL     1      13.209 -30.258 -14.456  1.00  0.00     0.339 C 
ATOM     12  O   UNL     1      12.349 -29.627 -15.121  1.00  0.00    -0.246 OA
BRANCH  11  13
ATOM     13  O   UNL     1      12.820 -31.326 -13.699  1.00  0.00    -0.478 OA
ATOM     14  H   UNL     1      12.147 -31.225 -13.055  1.00  0.00     0.297 HD
ENDBRANCH  11  13
ENDBRANCH   6  11
TORSDOF 4
ENDMDL
