REMARK VINA RESULT:      -0.0      7.151      8.477
REMARK SMILES CC(=O)Oc1ccccc1C(=O)O
REMARK SMILES IDX 5 1 6 2 7 3 8 4 9 5 10 6 4 7 2 8 1 9 3 10 11 11 12 12 13 13
REMARK H PARENT 13 14
ROOT
ATOM      1  C   UNL     1      14.610 -35.453  -8.357  1.00  0.00     0.145 A 
ATOM      2  C   UNL     1      13.877 -36.356  -7.601  1.00  0.00     0.048 A 
ATOM      3  C   UNL     1      14.353 -36.669  -6.326  1.00  0.00     0.004 A 
ATOM      4  C   UNL     1      15.493 -36.123  -5.822  1.00  0.00     0.001 A 
ATOM      5  C   UNL     1      16.201 -35.221  -6.610  1.00  0.00     0.019 A 
ATOM      6  C   UNL     1      15.771 -34.879  -7.878  1.00  0.00     0.102 A 
ENDROOT
BRANCH   1   7
ATOM      7  O   UNL     1      14.208 -35.086  -9.636  1.00  0.00    -0.426 OA
BRANCH   7   8
ATOM      8  C   UNL     1      14.160 -36.005 -10.673  1.00  0.00     0.308 C 
ATOM      9  C   UNL     1      12.884 -36.532 -11.234  1.00  0.00     0.139 C 
ATOM     10  O   UNL     1      15.293 -36.377 -11.122  1.00  0.00    -0.252 OA
ENDBRANCH   7   8
ENDBRANCH   1   7
BRANCH   6  11
ATOM     11  C   UNL     1      16.540 -33.929  -8.675  1.00  0.00     0.339 C 
ATOM     12  O   UNL     1      16.683 -32.747  -8.275  1.00  0.00    -0.246 OA
BRANCH  11  13
ATOM     13  O   UNL     1      17.107 -34.312  -9.858  1.00  0.00    -0.478 OA
ATOM     14  H   UNL     1      17.294 -33.672 -10.516  1.00  0.00     0.297 HD
ENDBRANCH  11  13
ENDBRANCH   6  11
TORSDOF 4
