MODEL 1
REMARK VINA RESULT:      -4.3      0.000      0.000
REMARK SMILES CCC[S@](=O)c1ccc2[nH]/c(=N\C(=O)OC)[nH]c2c1
REMARK SMILES IDX 6 1 7 2 8 3 9 4 10 5 11 6 17 7 18 8 19 9 4 12 5 13 3 14 2 15
REMARK SMILES IDX 1 16 12 17 13 18 14 19 15 20 16 21
REMARK H PARENT 10 10 17 11
ROOT
ATOM      1  C   UNL     1      -2.398  -2.411  -9.720  1.00  0.00     0.041 A 
ATOM      2  C   UNL     1      -3.680  -1.969  -9.883  1.00  0.00     0.020 A 
ATOM      3  C   UNL     1      -4.762  -2.854  -9.918  1.00  0.00     0.029 A 
ATOM      4  C   UNL     1      -4.537  -4.217  -9.783  1.00  0.00     0.065 A 
ATOM      5  N   UNL     1      -5.387  -5.262  -9.781  1.00  0.00    -0.324 N 
ATOM      6  C   UNL     1      -4.600  -6.360  -9.613  1.00  0.00     0.211 A 
ATOM      7  N   UNL     1      -3.312  -5.992  -9.516  1.00  0.00    -0.324 N 
ATOM      8  C   UNL     1      -3.245  -4.652  -9.619  1.00  0.00     0.066 A 
ATOM      9  C   UNL     1      -2.174  -3.767  -9.586  1.00  0.00     0.046 A 
ATOM     10  H   UNL     1      -6.366  -5.236  -9.880  1.00  0.00     0.170 HD
ATOM     11  H   UNL     1      -2.547  -6.599  -9.390  1.00  0.00     0.170 HD
ENDROOT
BRANCH   1  12
ATOM     12  S   UNL     1      -1.021  -1.271  -9.678  1.00  0.00     0.053 S 
ATOM     13  O   UNL     1      -1.693   0.099  -9.882  1.00  0.00    -0.254 OA
BRANCH  12  14
ATOM     14  C   UNL     1      -0.593  -1.238  -7.901  1.00  0.00     0.110 C 
BRANCH  14  15
ATOM     15  C   UNL     1      -1.397  -0.137  -7.267  1.00  0.00     0.010 C 
ATOM     16  C   UNL     1      -2.458  -0.787  -6.404  1.00  0.00     0.005 C 
ENDBRANCH  14  15
ENDBRANCH  12  14
ENDBRANCH   1  12
BRANCH   6  17
ATOM     17  N   UNL     1      -5.114  -7.544  -9.566  1.00  0.00    -0.140 NA
BRANCH  17  18
ATOM     18  C   UNL     1      -5.811  -8.049  -8.433  1.00  0.00     0.436 C 
ATOM     19  O   UNL     1      -6.432  -7.204  -7.734  1.00  0.00    -0.222 OA
BRANCH  18  20
ATOM     20  O   UNL     1      -5.841  -9.375  -8.070  1.00  0.00    -0.451 OA
ATOM     21  C   UNL     1      -7.069 -10.082  -7.878  1.00  0.00     0.284 C 
ENDBRANCH  18  20
ENDBRANCH  17  18
ENDBRANCH   6  17
TORSDOF 6
ENDMDL
MODEL 2
REMARK VINA RESULT:      -4.3      1.793      2.368
REMARK SMILES CCC[S@](=O)c1ccc2[nH]/c(=N\C(=O)OC)[nH]c2c1
REMARK SMILES IDX 6 1 7 2 8 3 9 4 10 5 11 6 17 7 18 8 19 9 4 12 5 13 3 14 2 15
REMARK SMILES IDX 1 16 12 17 13 18 14 19 15 20 16 21
REMARK H PARENT 10 10 17 11
ROOT
ATOM      1  C   UNL     1      -1.551  -1.094  -7.953  1.00  0.00     0.041 A 
ATOM      2  C   UNL     1      -2.087  -0.685  -9.141  1.00  0.00     0.020 A 
ATOM      3  C   UNL     1      -2.882  -1.533  -9.917  1.00  0.00     0.029 A 
ATOM      4  C   UNL     1      -3.140  -2.824  -9.477  1.00  0.00     0.065 A 
ATOM      5  N   UNL     1      -3.862  -3.822 -10.023  1.00  0.00    -0.324 N 
ATOM      6  C   UNL     1      -3.759  -4.857  -9.144  1.00  0.00     0.211 A 
ATOM      7  N   UNL     1      -3.000  -4.498  -8.096  1.00  0.00    -0.324 N 
ATOM      8  C   UNL     1      -2.599  -3.226  -8.280  1.00  0.00     0.066 A 
ATOM      9  C   UNL     1      -1.809  -2.378  -7.514  1.00  0.00     0.046 A 
ATOM     10  H   UNL     1      -4.355  -3.806 -10.875  1.00  0.00     0.170 HD
ATOM     11  H   UNL     1      -2.775  -5.067  -7.325  1.00  0.00     0.170 HD
ENDROOT
BRANCH   1  12
ATOM     12  S   UNL     1      -0.535  -0.001  -6.967  1.00  0.00     0.053 S 
ATOM     13  O   UNL     1       0.270   0.778  -8.023  1.00  0.00    -0.254 OA
BRANCH  12  14
ATOM     14  C   UNL     1      -1.742   1.247  -6.393  1.00  0.00     0.110 C 
BRANCH  14  15
ATOM     15  C   UNL     1      -2.125   0.882  -4.985  1.00  0.00     0.010 C 
ATOM     16  C   UNL     1      -3.561   0.403  -5.015  1.00  0.00     0.005 C 
ENDBRANCH  14  15
ENDBRANCH  12  14
ENDBRANCH   1  12
BRANCH   6  17
ATOM     17  N   UNL     1      -4.347  -5.984  -9.375  1.00  0.00    -0.140 NA
BRANCH  17  18
ATOM     18  C   UNL     1      -5.752  -6.173  -9.253  1.00  0.00     0.436 C 
ATOM     19  O   UNL     1      -6.471  -5.614 -10.124  1.00  0.00    -0.222 OA
BRANCH  18  20
ATOM     20  O   UNL     1      -6.350  -6.912  -8.260  1.00  0.00    -0.451 OA
ATOM     21  C   UNL     1      -6.003  -8.277  -8.015  1.00  0.00     0.284 C 
ENDBRANCH  18  20
ENDBRANCH  17  18
ENDBRANCH   6  17
TORSDOF 6
ENDMDL
MODEL 3
REMARK VINA RESULT:      -3.7      2.061      2.939
REMARK SMILES CCC[S@](=O)c1ccc2[nH]/c(=N\C(=O)OC)[nH]c2c1
REMARK SMILES IDX 6 1 7 2 8 3 9 4 10 5 11 6 17 7 18 8 19 9 4 12 5 13 3 14 2 15
REMARK SMILES IDX 1 16 12 17 13 18 14 19 15 20 16 21
REMARK H PARENT 10 10 17 11
ROOT
ATOM      1  C   UNL     1      -1.874  -1.069  -7.848  1.00  0.00     0.041 A 
ATOM      2  C   UNL     1      -1.421  -2.021  -6.979  1.00  0.00     0.020 A 
ATOM      3  C   UNL     1      -1.800  -3.360  -7.097  1.00  0.00     0.029 A 
ATOM      4  C   UNL     1      -2.658  -3.743  -8.118  1.00  0.00     0.065 A 
ATOM      5  N   UNL     1      -3.168  -4.946  -8.448  1.00  0.00    -0.324 N 
ATOM      6  C   UNL     1      -3.946  -4.715  -9.540  1.00  0.00     0.211 A 
ATOM      7  N   UNL     1      -3.910  -3.412  -9.865  1.00  0.00    -0.324 N 
ATOM      8  C   UNL     1      -3.108  -2.779  -8.988  1.00  0.00     0.066 A 
ATOM      9  C   UNL     1      -2.727  -1.449  -8.865  1.00  0.00     0.046 A 
ATOM     10  H   UNL     1      -3.011  -5.806  -7.995  1.00  0.00     0.170 HD
ATOM     11  H   UNL     1      -4.388  -2.991 -10.615  1.00  0.00     0.170 HD
ENDROOT
BRANCH   1  12
ATOM     12  S   UNL     1      -1.382   0.643  -7.689  1.00  0.00     0.053 S 
ATOM     13  O   UNL     1      -1.290   0.843  -6.165  1.00  0.00    -0.254 OA
BRANCH  12  14
ATOM     14  C   UNL     1       0.377   0.595  -8.187  1.00  0.00     0.110 C 
BRANCH  14  15
ATOM     15  C   UNL     1       0.428   0.080  -9.598  1.00  0.00     0.010 C 
ATOM     16  C   UNL     1       1.824   0.335 -10.125  1.00  0.00     0.005 C 
ENDBRANCH  14  15
ENDBRANCH  12  14
ENDBRANCH   1  12
BRANCH   6  17
ATOM     17  N   UNL     1      -4.589  -5.678 -10.113  1.00  0.00    -0.140 NA
BRANCH  17  18
ATOM     18  C   UNL     1      -5.765  -6.266  -9.567  1.00  0.00     0.436 C 
ATOM     19  O   UNL     1      -6.790  -5.534  -9.524  1.00  0.00    -0.222 OA
BRANCH  18  20
ATOM     20  O   UNL     1      -5.838  -7.555  -9.095  1.00  0.00    -0.451 OA
ATOM     21  C   UNL     1      -5.931  -7.849  -7.698  1.00  0.00     0.284 C 
ENDBRANCH  18  20
ENDBRANCH  17  18
ENDBRANCH   6  17
TORSDOF 6
ENDMDL
MODEL 4
REMARK VINA RESULT:      -3.7     10.826     14.031
REMARK SMILES CCC[S@](=O)c1ccc2[nH]/c(=N\C(=O)OC)[nH]c2c1
REMARK SMILES IDX 6 1 7 2 8 3 9 4 10 5 11 6 17 7 18 8 19 9 4 12 5 13 3 14 2 15
REMARK SMILES IDX 1 16 12 17 13 18 14 19 15 20 16 21
REMARK H PARENT 10 10 17 11
ROOT
ATOM      1  C   UNL     1      -6.955   2.633  -1.615  1.00  0.00     0.041 A 
ATOM      2  C   UNL     1      -5.859   3.278  -2.114  1.00  0.00     0.020 A 
ATOM      3  C   UNL     1      -5.852   4.661  -2.318  1.00  0.00     0.029 A 
ATOM      4  C   UNL     1      -6.981   5.405  -2.008  1.00  0.00     0.065 A 
ATOM      5  N   UNL     1      -7.231   6.725  -2.107  1.00  0.00    -0.324 N 
ATOM      6  C   UNL     1      -8.506   6.881  -1.658  1.00  0.00     0.211 A 
ATOM      7  N   UNL     1      -9.016   5.691  -1.296  1.00  0.00    -0.324 N 
ATOM      8  C   UNL     1      -8.078   4.748  -1.506  1.00  0.00     0.066 A 
ATOM      9  C   UNL     1      -8.079   3.374  -1.306  1.00  0.00     0.046 A 
ATOM     10  H   UNL     1      -6.622   7.426  -2.435  1.00  0.00     0.170 HD
ATOM     11  H   UNL     1      -9.919   5.536  -0.939  1.00  0.00     0.170 HD
ENDROOT
BRANCH   1  12
ATOM     12  S   UNL     1      -6.954   0.864  -1.358  1.00  0.00     0.053 S 
ATOM     13  O   UNL     1      -8.399   0.458  -1.700  1.00  0.00    -0.254 OA
BRANCH  12  14
ATOM     14  C   UNL     1      -6.021   0.255  -2.808  1.00  0.00     0.110 C 
BRANCH  14  15
ATOM     15  C   UNL     1      -6.963   0.260  -3.979  1.00  0.00     0.010 C 
ATOM     16  C   UNL     1      -6.315   1.069  -5.082  1.00  0.00     0.005 C 
ENDBRANCH  14  15
ENDBRANCH  12  14
ENDBRANCH   1  12
BRANCH   6  17
ATOM     17  N   UNL     1      -9.060   8.048  -1.623  1.00  0.00    -0.140 NA
BRANCH  17  18
ATOM     18  C   UNL     1      -8.428   9.196  -1.069  1.00  0.00     0.436 C 
ATOM     19  O   UNL     1      -9.073   9.819  -0.183  1.00  0.00    -0.222 OA
BRANCH  18  20
ATOM     20  O   UNL     1      -7.185   9.651  -1.440  1.00  0.00    -0.451 OA
ATOM     21  C   UNL     1      -6.119   9.804  -0.499  1.00  0.00     0.284 C 
ENDBRANCH  18  20
ENDBRANCH  17  18
ENDBRANCH   6  17
TORSDOF 6
ENDMDL
MODEL 5
REMARK VINA RESULT:      -3.7      2.773      6.836
REMARK SMILES CCC[S@](=O)c1ccc2[nH]/c(=N\C(=O)OC)[nH]c2c1
REMARK SMILES IDX 6 1 7 2 8 3 9 4 10 5 11 6 17 7 18 8 19 9 4 12 5 13 3 14 2 15
REMARK SMILES IDX 1 16 12 17 13 18 14 19 15 20 16 21
REMARK H PARENT 10 10 17 11
ROOT
ATOM      1  C   UNL     1      -4.332  -6.323  -9.317  1.00  0.00     0.041 A 
ATOM      2  C   UNL     1      -5.459  -5.754  -9.838  1.00  0.00     0.020 A 
ATOM      3  C   UNL     1      -5.533  -4.384 -10.103  1.00  0.00     0.029 A 
ATOM      4  C   UNL     1      -4.439  -3.573  -9.835  1.00  0.00     0.065 A 
ATOM      5  N   UNL     1      -4.253  -2.249  -9.996  1.00  0.00    -0.324 N 
ATOM      6  C   UNL     1      -2.985  -2.013  -9.562  1.00  0.00     0.211 A 
ATOM      7  N   UNL     1      -2.418  -3.159  -9.151  1.00  0.00    -0.324 N 
ATOM      8  C   UNL     1      -3.310  -4.154  -9.312  1.00  0.00     0.066 A 
ATOM      9  C   UNL     1      -3.243  -5.517  -9.050  1.00  0.00     0.046 A 
ATOM     10  H   UNL     1      -4.897  -1.594 -10.350  1.00  0.00     0.170 HD
ATOM     11  H   UNL     1      -1.506  -3.255  -8.793  1.00  0.00     0.170 HD
ENDROOT
BRANCH   1  12
ATOM     12  S   UNL     1      -4.247  -8.077  -8.981  1.00  0.00     0.053 S 
ATOM     13  O   UNL     1      -2.739  -8.379  -9.067  1.00  0.00    -0.254 OA
BRANCH  12  14
ATOM     14  C   UNL     1      -4.560  -8.149  -7.181  1.00  0.00     0.110 C 
BRANCH  14  15
ATOM     15  C   UNL     1      -6.048  -8.256  -6.990  1.00  0.00     0.010 C 
ATOM     16  C   UNL     1      -6.564  -9.267  -7.992  1.00  0.00     0.005 C 
ENDBRANCH  14  15
ENDBRANCH  12  14
ENDBRANCH   1  12
BRANCH   6  17
ATOM     17  N   UNL     1      -2.488  -0.821  -9.583  1.00  0.00    -0.140 NA
BRANCH  17  18
ATOM     18  C   UNL     1      -1.690  -0.288  -8.532  1.00  0.00     0.436 C 
ATOM     19  O   UNL     1      -1.411   0.939  -8.606  1.00  0.00    -0.222 OA
BRANCH  18  20
ATOM     20  O   UNL     1      -1.218  -1.022  -7.469  1.00  0.00    -0.451 OA
ATOM     21  C   UNL     1      -1.777  -0.906  -6.158  1.00  0.00     0.284 C 
ENDBRANCH  18  20
ENDBRANCH  17  18
ENDBRANCH   6  17
TORSDOF 6
ENDMDL
MODEL 6
REMARK VINA RESULT:      -3.6     10.275     13.683
REMARK SMILES CCC[S@](=O)c1ccc2[nH]/c(=N\C(=O)OC)[nH]c2c1
REMARK SMILES IDX 6 1 7 2 8 3 9 4 10 5 11 6 17 7 18 8 19 9 4 12 5 13 3 14 2 15
REMARK SMILES IDX 1 16 12 17 13 18 14 19 15 20 16 21
REMARK H PARENT 10 10 17 11
ROOT
ATOM      1  C   UNL     1      -7.651   2.601  -0.812  1.00  0.00     0.041 A 
ATOM      2  C   UNL     1      -8.379   3.263   0.136  1.00  0.00     0.020 A 
ATOM      3  C   UNL     1      -8.530   4.652   0.108  1.00  0.00     0.029 A 
ATOM      4  C   UNL     1      -7.930   5.386  -0.906  1.00  0.00     0.065 A 
ATOM      5  N   UNL     1      -7.920   6.709  -1.159  1.00  0.00    -0.324 N 
ATOM      6  C   UNL     1      -7.169   6.850  -2.286  1.00  0.00     0.211 A 
ATOM      7  N   UNL     1      -6.737   5.649  -2.705  1.00  0.00    -0.324 N 
ATOM      8  C   UNL     1      -7.201   4.713  -1.856  1.00  0.00     0.066 A 
ATOM      9  C   UNL     1      -7.055   3.331  -1.821  1.00  0.00     0.046 A 
ATOM     10  H   UNL     1      -8.360   7.420  -0.640  1.00  0.00     0.170 HD
ATOM     11  H   UNL     1      -6.177   5.481  -3.497  1.00  0.00     0.170 HD
ENDROOT
BRANCH   1  12
ATOM     12  S   UNL     1      -7.465   0.824  -0.767  1.00  0.00     0.053 S 
ATOM     13  O   UNL     1      -8.796   0.315  -1.350  1.00  0.00    -0.254 OA
BRANCH  12  14
ATOM     14  C   UNL     1      -6.292   0.516  -2.136  1.00  0.00     0.110 C 
BRANCH  14  15
ATOM     15  C   UNL     1      -7.071  -0.112  -3.258  1.00  0.00     0.010 C 
ATOM     16  C   UNL     1      -6.729   0.640  -4.527  1.00  0.00     0.005 C 
ENDBRANCH  14  15
ENDBRANCH  12  14
ENDBRANCH   1  12
BRANCH   6  17
ATOM     17  N   UNL     1      -6.960   8.015  -2.803  1.00  0.00    -0.140 NA
BRANCH  17  18
ATOM     18  C   UNL     1      -5.671   8.611  -2.890  1.00  0.00     0.436 C 
ATOM     19  O   UNL     1      -5.630   9.799  -3.310  1.00  0.00    -0.222 OA
BRANCH  18  20
ATOM     20  O   UNL     1      -4.499   7.977  -2.552  1.00  0.00    -0.451 OA
ATOM     21  C   UNL     1      -3.592   7.480  -3.539  1.00  0.00     0.284 C 
ENDBRANCH  18  20
ENDBRANCH  17  18
ENDBRANCH   6  17
TORSDOF 6
ENDMDL
MODEL 7
REMARK VINA RESULT:      -3.4      2.658      3.671
REMARK SMILES CCC[S@](=O)c1ccc2[nH]/c(=N\C(=O)OC)[nH]c2c1
REMARK SMILES IDX 6 1 7 2 8 3 9 4 10 5 11 6 17 7 18 8 19 9 4 12 5 13 3 14 2 15
REMARK SMILES IDX 1 16 12 17 13 18 14 19 15 20 16 21
REMARK H PARENT 10 10 17 11
ROOT
ATOM      1  C   UNL     1      -1.563   0.357  -8.243  1.00  0.00     0.041 A 
ATOM      2  C   UNL     1      -1.783   0.139  -9.574  1.00  0.00     0.020 A 
ATOM      3  C   UNL     1      -2.154  -1.118 -10.058  1.00  0.00     0.029 A 
ATOM      4  C   UNL     1      -2.306  -2.177  -9.174  1.00  0.00     0.065 A 
ATOM      5  N   UNL     1      -2.651  -3.463  -9.378  1.00  0.00    -0.324 N 
ATOM      6  C   UNL     1      -2.638  -4.034  -8.142  1.00  0.00     0.211 A 
ATOM      7  N   UNL     1      -2.297  -3.123  -7.216  1.00  0.00    -0.324 N 
ATOM      8  C   UNL     1      -2.084  -1.948  -7.838  1.00  0.00     0.066 A 
ATOM      9  C   UNL     1      -1.714  -0.696  -7.363  1.00  0.00     0.046 A 
ATOM     10  H   UNL     1      -2.864  -3.896 -10.236  1.00  0.00     0.170 HD
ATOM     11  H   UNL     1      -2.217  -3.286  -6.249  1.00  0.00     0.170 HD
ENDROOT
BRANCH   1  12
ATOM     12  S   UNL     1      -1.088   1.969  -7.633  1.00  0.00     0.053 S 
ATOM     13  O   UNL     1      -1.975   2.149  -6.387  1.00  0.00    -0.254 OA
BRANCH  12  14
ATOM     14  C   UNL     1       0.557   1.645  -6.902  1.00  0.00     0.110 C 
BRANCH  14  15
ATOM     15  C   UNL     1       1.486   1.296  -8.031  1.00  0.00     0.010 C 
ATOM     16  C   UNL     1       2.018  -0.097  -7.769  1.00  0.00     0.005 C 
ENDBRANCH  14  15
ENDBRANCH  12  14
ENDBRANCH   1  12
BRANCH   6  17
ATOM     17  N   UNL     1      -2.928  -5.284  -7.986  1.00  0.00    -0.140 NA
BRANCH  17  18
ATOM     18  C   UNL     1      -3.629  -6.051  -8.958  1.00  0.00     0.436 C 
ATOM     19  O   UNL     1      -4.844  -6.285  -8.718  1.00  0.00    -0.222 OA
BRANCH  18  20
ATOM     20  O   UNL     1      -3.066  -6.538 -10.114  1.00  0.00    -0.451 OA
ATOM     21  C   UNL     1      -2.249  -7.712 -10.124  1.00  0.00     0.284 C 
ENDBRANCH  18  20
ENDBRANCH  17  18
ENDBRANCH   6  17
TORSDOF 6
ENDMDL
MODEL 8
REMARK VINA RESULT:      -3.4      9.759     12.630
REMARK SMILES CCC[S@](=O)c1ccc2[nH]/c(=N\C(=O)OC)[nH]c2c1
REMARK SMILES IDX 6 1 7 2 8 3 9 4 10 5 11 6 17 7 18 8 19 9 4 12 5 13 3 14 2 15
REMARK SMILES IDX 1 16 12 17 13 18 14 19 15 20 16 21
REMARK H PARENT 10 10 17 11
ROOT
ATOM      1  C   UNL     1      -6.226   1.485  -2.335  1.00  0.00     0.041 A 
ATOM      2  C   UNL     1      -7.342   1.268  -1.577  1.00  0.00     0.020 A 
ATOM      3  C   UNL     1      -8.182   2.317  -1.194  1.00  0.00     0.029 A 
ATOM      4  C   UNL     1      -7.886   3.614  -1.591  1.00  0.00     0.065 A 
ATOM      5  N   UNL     1      -8.519   4.780  -1.363  1.00  0.00    -0.324 N 
ATOM      6  C   UNL     1      -7.770   5.722  -1.998  1.00  0.00     0.211 A 
ATOM      7  N   UNL     1      -6.713   5.145  -2.594  1.00  0.00    -0.324 N 
ATOM      8  C   UNL     1      -6.763   3.822  -2.354  1.00  0.00     0.066 A 
ATOM      9  C   UNL     1      -5.931   2.775  -2.731  1.00  0.00     0.046 A 
ATOM     10  H   UNL     1      -9.346   4.920  -0.847  1.00  0.00     0.170 HD
ATOM     11  H   UNL     1      -6.021   5.611  -3.117  1.00  0.00     0.170 HD
ENDROOT
BRANCH   1  12
ATOM     12  S   UNL     1      -5.157   0.137  -2.820  1.00  0.00     0.053 S 
ATOM     13  O   UNL     1      -6.145  -1.005  -3.122  1.00  0.00    -0.254 OA
BRANCH  12  14
ATOM     14  C   UNL     1      -4.617   0.643  -4.492  1.00  0.00     0.110 C 
BRANCH  14  15
ATOM     15  C   UNL     1      -3.236   0.087  -4.703  1.00  0.00     0.010 C 
ATOM     16  C   UNL     1      -2.406   1.168  -5.361  1.00  0.00     0.005 C 
ENDBRANCH  14  15
ENDBRANCH  12  14
ENDBRANCH   1  12
BRANCH   6  17
ATOM     17  N   UNL     1      -8.110   6.969  -1.972  1.00  0.00    -0.140 NA
BRANCH  17  18
ATOM     18  C   UNL     1      -9.439   7.421  -2.202  1.00  0.00     0.436 C 
ATOM     19  O   UNL     1     -10.122   6.758  -3.028  1.00  0.00    -0.222 OA
BRANCH  18  20
ATOM     20  O   UNL     1     -10.002   8.515  -1.588  1.00  0.00    -0.451 OA
ATOM     21  C   UNL     1      -9.885   8.739  -0.180  1.00  0.00     0.284 C 
ENDBRANCH  18  20
ENDBRANCH  17  18
ENDBRANCH   6  17
TORSDOF 6
ENDMDL
MODEL 9
REMARK VINA RESULT:      -3.4      5.711      7.799
REMARK SMILES CCC[S@](=O)c1ccc2[nH]/c(=N\C(=O)OC)[nH]c2c1
REMARK SMILES IDX 6 1 7 2 8 3 9 4 10 5 11 6 17 7 18 8 19 9 4 12 5 13 3 14 2 15
REMARK SMILES IDX 1 16 12 17 13 18 14 19 15 20 16 21
REMARK H PARENT 10 10 17 11
ROOT
ATOM      1  C   UNL     1      -2.034  -0.932  -5.849  1.00  0.00     0.041 A 
ATOM      2  C   UNL     1      -1.995  -1.752  -4.756  1.00  0.00     0.020 A 
ATOM      3  C   UNL     1      -2.882  -1.591  -3.688  1.00  0.00     0.029 A 
ATOM      4  C   UNL     1      -3.828  -0.576  -3.729  1.00  0.00     0.065 A 
ATOM      5  N   UNL     1      -4.781  -0.213  -2.849  1.00  0.00    -0.324 N 
ATOM      6  C   UNL     1      -5.408   0.850  -3.422  1.00  0.00     0.211 A 
ATOM      7  N   UNL     1      -4.854   1.124  -4.615  1.00  0.00    -0.324 N 
ATOM      8  C   UNL     1      -3.860   0.242  -4.831  1.00  0.00     0.066 A 
ATOM      9  C   UNL     1      -2.975   0.077  -5.890  1.00  0.00     0.046 A 
ATOM     10  H   UNL     1      -4.979  -0.627  -1.978  1.00  0.00     0.170 HD
ATOM     11  H   UNL     1      -5.128   1.845  -5.226  1.00  0.00     0.170 HD
ENDROOT
BRANCH   1  12
ATOM     12  S   UNL     1      -0.895  -1.147  -7.211  1.00  0.00     0.053 S 
ATOM     13  O   UNL     1       0.190  -2.065  -6.621  1.00  0.00    -0.254 OA
BRANCH  12  14
ATOM     14  C   UNL     1      -1.812  -2.280  -8.315  1.00  0.00     0.110 C 
BRANCH  14  15
ATOM     15  C   UNL     1      -2.575  -1.430  -9.293  1.00  0.00     0.010 C 
ATOM     16  C   UNL     1      -3.872  -2.146  -9.603  1.00  0.00     0.005 C 
ENDBRANCH  14  15
ENDBRANCH  12  14
ENDBRANCH   1  12
BRANCH   6  17
ATOM     17  N   UNL     1      -6.388   1.444  -2.825  1.00  0.00    -0.140 NA
BRANCH  17  18
ATOM     18  C   UNL     1      -7.692   0.885  -2.718  1.00  0.00     0.436 C 
ATOM     19  O   UNL     1      -7.924  -0.135  -3.420  1.00  0.00    -0.222 OA
BRANCH  18  20
ATOM     20  O   UNL     1      -8.686   1.387  -1.912  1.00  0.00    -0.451 OA
ATOM     21  C   UNL     1      -9.151   0.688  -0.754  1.00  0.00     0.284 C 
ENDBRANCH  18  20
ENDBRANCH  17  18
ENDBRANCH   6  17
TORSDOF 6
ENDMDL
