REMARK VINA RESULT:      -3.7     10.826     14.031
REMARK SMILES CCC[S@](=O)c1ccc2[nH]/c(=N\C(=O)OC)[nH]c2c1
REMARK SMILES IDX 6 1 7 2 8 3 9 4 10 5 11 6 17 7 18 8 19 9 4 12 5 13 3 14 2 15
REMARK SMILES IDX 1 16 12 17 13 18 14 19 15 20 16 21
REMARK H PARENT 10 10 17 11
ROOT
ATOM      1  C   UNL     1      -6.955   2.633  -1.615  1.00  0.00     0.041 A 
ATOM      2  C   UNL     1      -5.859   3.278  -2.114  1.00  0.00     0.020 A 
ATOM      3  C   UNL     1      -5.852   4.661  -2.318  1.00  0.00     0.029 A 
ATOM      4  C   UNL     1      -6.981   5.405  -2.008  1.00  0.00     0.065 A 
ATOM      5  N   UNL     1      -7.231   6.725  -2.107  1.00  0.00    -0.324 N 
ATOM      6  C   UNL     1      -8.506   6.881  -1.658  1.00  0.00     0.211 A 
ATOM      7  N   UNL     1      -9.016   5.691  -1.296  1.00  0.00    -0.324 N 
ATOM      8  C   UNL     1      -8.078   4.748  -1.506  1.00  0.00     0.066 A 
ATOM      9  C   UNL     1      -8.079   3.374  -1.306  1.00  0.00     0.046 A 
ATOM     10  H   UNL     1      -6.622   7.426  -2.435  1.00  0.00     0.170 HD
ATOM     11  H   UNL     1      -9.919   5.536  -0.939  1.00  0.00     0.170 HD
ENDROOT
BRANCH   1  12
ATOM     12  S   UNL     1      -6.954   0.864  -1.358  1.00  0.00     0.053 S 
ATOM     13  O   UNL     1      -8.399   0.458  -1.700  1.00  0.00    -0.254 OA
BRANCH  12  14
ATOM     14  C   UNL     1      -6.021   0.255  -2.808  1.00  0.00     0.110 C 
BRANCH  14  15
ATOM     15  C   UNL     1      -6.963   0.260  -3.979  1.00  0.00     0.010 C 
ATOM     16  C   UNL     1      -6.315   1.069  -5.082  1.00  0.00     0.005 C 
ENDBRANCH  14  15
ENDBRANCH  12  14
ENDBRANCH   1  12
BRANCH   6  17
ATOM     17  N   UNL     1      -9.060   8.048  -1.623  1.00  0.00    -0.140 NA
BRANCH  17  18
ATOM     18  C   UNL     1      -8.428   9.196  -1.069  1.00  0.00     0.436 C 
ATOM     19  O   UNL     1      -9.073   9.819  -0.183  1.00  0.00    -0.222 OA
BRANCH  18  20
ATOM     20  O   UNL     1      -7.185   9.651  -1.440  1.00  0.00    -0.451 OA
ATOM     21  C   UNL     1      -6.119   9.804  -0.499  1.00  0.00     0.284 C 
ENDBRANCH  18  20
ENDBRANCH  17  18
ENDBRANCH   6  17
TORSDOF 6
