REMARK VINA RESULT:      -3.7      2.773      6.836
REMARK SMILES CCC[S@](=O)c1ccc2[nH]/c(=N\C(=O)OC)[nH]c2c1
REMARK SMILES IDX 6 1 7 2 8 3 9 4 10 5 11 6 17 7 18 8 19 9 4 12 5 13 3 14 2 15
REMARK SMILES IDX 1 16 12 17 13 18 14 19 15 20 16 21
REMARK H PARENT 10 10 17 11
ROOT
ATOM      1  C   UNL     1      -4.332  -6.323  -9.317  1.00  0.00     0.041 A 
ATOM      2  C   UNL     1      -5.459  -5.754  -9.838  1.00  0.00     0.020 A 
ATOM      3  C   UNL     1      -5.533  -4.384 -10.103  1.00  0.00     0.029 A 
ATOM      4  C   UNL     1      -4.439  -3.573  -9.835  1.00  0.00     0.065 A 
ATOM      5  N   UNL     1      -4.253  -2.249  -9.996  1.00  0.00    -0.324 N 
ATOM      6  C   UNL     1      -2.985  -2.013  -9.562  1.00  0.00     0.211 A 
ATOM      7  N   UNL     1      -2.418  -3.159  -9.151  1.00  0.00    -0.324 N 
ATOM      8  C   UNL     1      -3.310  -4.154  -9.312  1.00  0.00     0.066 A 
ATOM      9  C   UNL     1      -3.243  -5.517  -9.050  1.00  0.00     0.046 A 
ATOM     10  H   UNL     1      -4.897  -1.594 -10.350  1.00  0.00     0.170 HD
ATOM     11  H   UNL     1      -1.506  -3.255  -8.793  1.00  0.00     0.170 HD
ENDROOT
BRANCH   1  12
ATOM     12  S   UNL     1      -4.247  -8.077  -8.981  1.00  0.00     0.053 S 
ATOM     13  O   UNL     1      -2.739  -8.379  -9.067  1.00  0.00    -0.254 OA
BRANCH  12  14
ATOM     14  C   UNL     1      -4.560  -8.149  -7.181  1.00  0.00     0.110 C 
BRANCH  14  15
ATOM     15  C   UNL     1      -6.048  -8.256  -6.990  1.00  0.00     0.010 C 
ATOM     16  C   UNL     1      -6.564  -9.267  -7.992  1.00  0.00     0.005 C 
ENDBRANCH  14  15
ENDBRANCH  12  14
ENDBRANCH   1  12
BRANCH   6  17
ATOM     17  N   UNL     1      -2.488  -0.821  -9.583  1.00  0.00    -0.140 NA
BRANCH  17  18
ATOM     18  C   UNL     1      -1.690  -0.288  -8.532  1.00  0.00     0.436 C 
ATOM     19  O   UNL     1      -1.411   0.939  -8.606  1.00  0.00    -0.222 OA
BRANCH  18  20
ATOM     20  O   UNL     1      -1.218  -1.022  -7.469  1.00  0.00    -0.451 OA
ATOM     21  C   UNL     1      -1.777  -0.906  -6.158  1.00  0.00     0.284 C 
ENDBRANCH  18  20
ENDBRANCH  17  18
ENDBRANCH   6  17
TORSDOF 6
