REMARK VINA RESULT:      -4.3      1.793      2.368
REMARK SMILES CCC[S@](=O)c1ccc2[nH]/c(=N\C(=O)OC)[nH]c2c1
REMARK SMILES IDX 6 1 7 2 8 3 9 4 10 5 11 6 17 7 18 8 19 9 4 12 5 13 3 14 2 15
REMARK SMILES IDX 1 16 12 17 13 18 14 19 15 20 16 21
REMARK H PARENT 10 10 17 11
ROOT
ATOM      1  C   UNL     1      -1.551  -1.094  -7.953  1.00  0.00     0.041 A 
ATOM      2  C   UNL     1      -2.087  -0.685  -9.141  1.00  0.00     0.020 A 
ATOM      3  C   UNL     1      -2.882  -1.533  -9.917  1.00  0.00     0.029 A 
ATOM      4  C   UNL     1      -3.140  -2.824  -9.477  1.00  0.00     0.065 A 
ATOM      5  N   UNL     1      -3.862  -3.822 -10.023  1.00  0.00    -0.324 N 
ATOM      6  C   UNL     1      -3.759  -4.857  -9.144  1.00  0.00     0.211 A 
ATOM      7  N   UNL     1      -3.000  -4.498  -8.096  1.00  0.00    -0.324 N 
ATOM      8  C   UNL     1      -2.599  -3.226  -8.280  1.00  0.00     0.066 A 
ATOM      9  C   UNL     1      -1.809  -2.378  -7.514  1.00  0.00     0.046 A 
ATOM     10  H   UNL     1      -4.355  -3.806 -10.875  1.00  0.00     0.170 HD
ATOM     11  H   UNL     1      -2.775  -5.067  -7.325  1.00  0.00     0.170 HD
ENDROOT
BRANCH   1  12
ATOM     12  S   UNL     1      -0.535  -0.001  -6.967  1.00  0.00     0.053 S 
ATOM     13  O   UNL     1       0.270   0.778  -8.023  1.00  0.00    -0.254 OA
BRANCH  12  14
ATOM     14  C   UNL     1      -1.742   1.247  -6.393  1.00  0.00     0.110 C 
BRANCH  14  15
ATOM     15  C   UNL     1      -2.125   0.882  -4.985  1.00  0.00     0.010 C 
ATOM     16  C   UNL     1      -3.561   0.403  -5.015  1.00  0.00     0.005 C 
ENDBRANCH  14  15
ENDBRANCH  12  14
ENDBRANCH   1  12
BRANCH   6  17
ATOM     17  N   UNL     1      -4.347  -5.984  -9.375  1.00  0.00    -0.140 NA
BRANCH  17  18
ATOM     18  C   UNL     1      -5.752  -6.173  -9.253  1.00  0.00     0.436 C 
ATOM     19  O   UNL     1      -6.471  -5.614 -10.124  1.00  0.00    -0.222 OA
BRANCH  18  20
ATOM     20  O   UNL     1      -6.350  -6.912  -8.260  1.00  0.00    -0.451 OA
ATOM     21  C   UNL     1      -6.003  -8.277  -8.015  1.00  0.00     0.284 C 
ENDBRANCH  18  20
ENDBRANCH  17  18
ENDBRANCH   6  17
TORSDOF 6
