REMARK VINA RESULT:      -3.7      2.061      2.939
REMARK SMILES CCC[S@](=O)c1ccc2[nH]/c(=N\C(=O)OC)[nH]c2c1
REMARK SMILES IDX 6 1 7 2 8 3 9 4 10 5 11 6 17 7 18 8 19 9 4 12 5 13 3 14 2 15
REMARK SMILES IDX 1 16 12 17 13 18 14 19 15 20 16 21
REMARK H PARENT 10 10 17 11
ROOT
ATOM      1  C   UNL     1      -1.874  -1.069  -7.848  1.00  0.00     0.041 A 
ATOM      2  C   UNL     1      -1.421  -2.021  -6.979  1.00  0.00     0.020 A 
ATOM      3  C   UNL     1      -1.800  -3.360  -7.097  1.00  0.00     0.029 A 
ATOM      4  C   UNL     1      -2.658  -3.743  -8.118  1.00  0.00     0.065 A 
ATOM      5  N   UNL     1      -3.168  -4.946  -8.448  1.00  0.00    -0.324 N 
ATOM      6  C   UNL     1      -3.946  -4.715  -9.540  1.00  0.00     0.211 A 
ATOM      7  N   UNL     1      -3.910  -3.412  -9.865  1.00  0.00    -0.324 N 
ATOM      8  C   UNL     1      -3.108  -2.779  -8.988  1.00  0.00     0.066 A 
ATOM      9  C   UNL     1      -2.727  -1.449  -8.865  1.00  0.00     0.046 A 
ATOM     10  H   UNL     1      -3.011  -5.806  -7.995  1.00  0.00     0.170 HD
ATOM     11  H   UNL     1      -4.388  -2.991 -10.615  1.00  0.00     0.170 HD
ENDROOT
BRANCH   1  12
ATOM     12  S   UNL     1      -1.382   0.643  -7.689  1.00  0.00     0.053 S 
ATOM     13  O   UNL     1      -1.290   0.843  -6.165  1.00  0.00    -0.254 OA
BRANCH  12  14
ATOM     14  C   UNL     1       0.377   0.595  -8.187  1.00  0.00     0.110 C 
BRANCH  14  15
ATOM     15  C   UNL     1       0.428   0.080  -9.598  1.00  0.00     0.010 C 
ATOM     16  C   UNL     1       1.824   0.335 -10.125  1.00  0.00     0.005 C 
ENDBRANCH  14  15
ENDBRANCH  12  14
ENDBRANCH   1  12
BRANCH   6  17
ATOM     17  N   UNL     1      -4.589  -5.678 -10.113  1.00  0.00    -0.140 NA
BRANCH  17  18
ATOM     18  C   UNL     1      -5.765  -6.266  -9.567  1.00  0.00     0.436 C 
ATOM     19  O   UNL     1      -6.790  -5.534  -9.524  1.00  0.00    -0.222 OA
BRANCH  18  20
ATOM     20  O   UNL     1      -5.838  -7.555  -9.095  1.00  0.00    -0.451 OA
ATOM     21  C   UNL     1      -5.931  -7.849  -7.698  1.00  0.00     0.284 C 
ENDBRANCH  18  20
ENDBRANCH  17  18
ENDBRANCH   6  17
TORSDOF 6
