REMARK VINA RESULT:      -4.3      0.000      0.000
REMARK SMILES CCC[S@](=O)c1ccc2[nH]/c(=N\C(=O)OC)[nH]c2c1
REMARK SMILES IDX 6 1 7 2 8 3 9 4 10 5 11 6 17 7 18 8 19 9 4 12 5 13 3 14 2 15
REMARK SMILES IDX 1 16 12 17 13 18 14 19 15 20 16 21
REMARK H PARENT 10 10 17 11
ROOT
ATOM      1  C   UNL     1      -2.398  -2.411  -9.720  1.00  0.00     0.041 A 
ATOM      2  C   UNL     1      -3.680  -1.969  -9.883  1.00  0.00     0.020 A 
ATOM      3  C   UNL     1      -4.762  -2.854  -9.918  1.00  0.00     0.029 A 
ATOM      4  C   UNL     1      -4.537  -4.217  -9.783  1.00  0.00     0.065 A 
ATOM      5  N   UNL     1      -5.387  -5.262  -9.781  1.00  0.00    -0.324 N 
ATOM      6  C   UNL     1      -4.600  -6.360  -9.613  1.00  0.00     0.211 A 
ATOM      7  N   UNL     1      -3.312  -5.992  -9.516  1.00  0.00    -0.324 N 
ATOM      8  C   UNL     1      -3.245  -4.652  -9.619  1.00  0.00     0.066 A 
ATOM      9  C   UNL     1      -2.174  -3.767  -9.586  1.00  0.00     0.046 A 
ATOM     10  H   UNL     1      -6.366  -5.236  -9.880  1.00  0.00     0.170 HD
ATOM     11  H   UNL     1      -2.547  -6.599  -9.390  1.00  0.00     0.170 HD
ENDROOT
BRANCH   1  12
ATOM     12  S   UNL     1      -1.021  -1.271  -9.678  1.00  0.00     0.053 S 
ATOM     13  O   UNL     1      -1.693   0.099  -9.882  1.00  0.00    -0.254 OA
BRANCH  12  14
ATOM     14  C   UNL     1      -0.593  -1.238  -7.901  1.00  0.00     0.110 C 
BRANCH  14  15
ATOM     15  C   UNL     1      -1.397  -0.137  -7.267  1.00  0.00     0.010 C 
ATOM     16  C   UNL     1      -2.458  -0.787  -6.404  1.00  0.00     0.005 C 
ENDBRANCH  14  15
ENDBRANCH  12  14
ENDBRANCH   1  12
BRANCH   6  17
ATOM     17  N   UNL     1      -5.114  -7.544  -9.566  1.00  0.00    -0.140 NA
BRANCH  17  18
ATOM     18  C   UNL     1      -5.811  -8.049  -8.433  1.00  0.00     0.436 C 
ATOM     19  O   UNL     1      -6.432  -7.204  -7.734  1.00  0.00    -0.222 OA
BRANCH  18  20
ATOM     20  O   UNL     1      -5.841  -9.375  -8.070  1.00  0.00    -0.451 OA
ATOM     21  C   UNL     1      -7.069 -10.082  -7.878  1.00  0.00     0.284 C 
ENDBRANCH  18  20
ENDBRANCH  17  18
ENDBRANCH   6  17
TORSDOF 6
