REMARK VINA RESULT:      -3.4      9.759     12.630
REMARK SMILES CCC[S@](=O)c1ccc2[nH]/c(=N\C(=O)OC)[nH]c2c1
REMARK SMILES IDX 6 1 7 2 8 3 9 4 10 5 11 6 17 7 18 8 19 9 4 12 5 13 3 14 2 15
REMARK SMILES IDX 1 16 12 17 13 18 14 19 15 20 16 21
REMARK H PARENT 10 10 17 11
ROOT
ATOM      1  C   UNL     1      -6.226   1.485  -2.335  1.00  0.00     0.041 A 
ATOM      2  C   UNL     1      -7.342   1.268  -1.577  1.00  0.00     0.020 A 
ATOM      3  C   UNL     1      -8.182   2.317  -1.194  1.00  0.00     0.029 A 
ATOM      4  C   UNL     1      -7.886   3.614  -1.591  1.00  0.00     0.065 A 
ATOM      5  N   UNL     1      -8.519   4.780  -1.363  1.00  0.00    -0.324 N 
ATOM      6  C   UNL     1      -7.770   5.722  -1.998  1.00  0.00     0.211 A 
ATOM      7  N   UNL     1      -6.713   5.145  -2.594  1.00  0.00    -0.324 N 
ATOM      8  C   UNL     1      -6.763   3.822  -2.354  1.00  0.00     0.066 A 
ATOM      9  C   UNL     1      -5.931   2.775  -2.731  1.00  0.00     0.046 A 
ATOM     10  H   UNL     1      -9.346   4.920  -0.847  1.00  0.00     0.170 HD
ATOM     11  H   UNL     1      -6.021   5.611  -3.117  1.00  0.00     0.170 HD
ENDROOT
BRANCH   1  12
ATOM     12  S   UNL     1      -5.157   0.137  -2.820  1.00  0.00     0.053 S 
ATOM     13  O   UNL     1      -6.145  -1.005  -3.122  1.00  0.00    -0.254 OA
BRANCH  12  14
ATOM     14  C   UNL     1      -4.617   0.643  -4.492  1.00  0.00     0.110 C 
BRANCH  14  15
ATOM     15  C   UNL     1      -3.236   0.087  -4.703  1.00  0.00     0.010 C 
ATOM     16  C   UNL     1      -2.406   1.168  -5.361  1.00  0.00     0.005 C 
ENDBRANCH  14  15
ENDBRANCH  12  14
ENDBRANCH   1  12
BRANCH   6  17
ATOM     17  N   UNL     1      -8.110   6.969  -1.972  1.00  0.00    -0.140 NA
BRANCH  17  18
ATOM     18  C   UNL     1      -9.439   7.421  -2.202  1.00  0.00     0.436 C 
ATOM     19  O   UNL     1     -10.122   6.758  -3.028  1.00  0.00    -0.222 OA
BRANCH  18  20
ATOM     20  O   UNL     1     -10.002   8.515  -1.588  1.00  0.00    -0.451 OA
ATOM     21  C   UNL     1      -9.885   8.739  -0.180  1.00  0.00     0.284 C 
ENDBRANCH  18  20
ENDBRANCH  17  18
ENDBRANCH   6  17
TORSDOF 6
