REMARK VINA RESULT:      -3.4      5.711      7.799
REMARK SMILES CCC[S@](=O)c1ccc2[nH]/c(=N\C(=O)OC)[nH]c2c1
REMARK SMILES IDX 6 1 7 2 8 3 9 4 10 5 11 6 17 7 18 8 19 9 4 12 5 13 3 14 2 15
REMARK SMILES IDX 1 16 12 17 13 18 14 19 15 20 16 21
REMARK H PARENT 10 10 17 11
ROOT
ATOM      1  C   UNL     1      -2.034  -0.932  -5.849  1.00  0.00     0.041 A 
ATOM      2  C   UNL     1      -1.995  -1.752  -4.756  1.00  0.00     0.020 A 
ATOM      3  C   UNL     1      -2.882  -1.591  -3.688  1.00  0.00     0.029 A 
ATOM      4  C   UNL     1      -3.828  -0.576  -3.729  1.00  0.00     0.065 A 
ATOM      5  N   UNL     1      -4.781  -0.213  -2.849  1.00  0.00    -0.324 N 
ATOM      6  C   UNL     1      -5.408   0.850  -3.422  1.00  0.00     0.211 A 
ATOM      7  N   UNL     1      -4.854   1.124  -4.615  1.00  0.00    -0.324 N 
ATOM      8  C   UNL     1      -3.860   0.242  -4.831  1.00  0.00     0.066 A 
ATOM      9  C   UNL     1      -2.975   0.077  -5.890  1.00  0.00     0.046 A 
ATOM     10  H   UNL     1      -4.979  -0.627  -1.978  1.00  0.00     0.170 HD
ATOM     11  H   UNL     1      -5.128   1.845  -5.226  1.00  0.00     0.170 HD
ENDROOT
BRANCH   1  12
ATOM     12  S   UNL     1      -0.895  -1.147  -7.211  1.00  0.00     0.053 S 
ATOM     13  O   UNL     1       0.190  -2.065  -6.621  1.00  0.00    -0.254 OA
BRANCH  12  14
ATOM     14  C   UNL     1      -1.812  -2.280  -8.315  1.00  0.00     0.110 C 
BRANCH  14  15
ATOM     15  C   UNL     1      -2.575  -1.430  -9.293  1.00  0.00     0.010 C 
ATOM     16  C   UNL     1      -3.872  -2.146  -9.603  1.00  0.00     0.005 C 
ENDBRANCH  14  15
ENDBRANCH  12  14
ENDBRANCH   1  12
BRANCH   6  17
ATOM     17  N   UNL     1      -6.388   1.444  -2.825  1.00  0.00    -0.140 NA
BRANCH  17  18
ATOM     18  C   UNL     1      -7.692   0.885  -2.718  1.00  0.00     0.436 C 
ATOM     19  O   UNL     1      -7.924  -0.135  -3.420  1.00  0.00    -0.222 OA
BRANCH  18  20
ATOM     20  O   UNL     1      -8.686   1.387  -1.912  1.00  0.00    -0.451 OA
ATOM     21  C   UNL     1      -9.151   0.688  -0.754  1.00  0.00     0.284 C 
ENDBRANCH  18  20
ENDBRANCH  17  18
ENDBRANCH   6  17
TORSDOF 6
