REMARK VINA RESULT:      -3.4      2.658      3.671
REMARK SMILES CCC[S@](=O)c1ccc2[nH]/c(=N\C(=O)OC)[nH]c2c1
REMARK SMILES IDX 6 1 7 2 8 3 9 4 10 5 11 6 17 7 18 8 19 9 4 12 5 13 3 14 2 15
REMARK SMILES IDX 1 16 12 17 13 18 14 19 15 20 16 21
REMARK H PARENT 10 10 17 11
ROOT
ATOM      1  C   UNL     1      -1.563   0.357  -8.243  1.00  0.00     0.041 A 
ATOM      2  C   UNL     1      -1.783   0.139  -9.574  1.00  0.00     0.020 A 
ATOM      3  C   UNL     1      -2.154  -1.118 -10.058  1.00  0.00     0.029 A 
ATOM      4  C   UNL     1      -2.306  -2.177  -9.174  1.00  0.00     0.065 A 
ATOM      5  N   UNL     1      -2.651  -3.463  -9.378  1.00  0.00    -0.324 N 
ATOM      6  C   UNL     1      -2.638  -4.034  -8.142  1.00  0.00     0.211 A 
ATOM      7  N   UNL     1      -2.297  -3.123  -7.216  1.00  0.00    -0.324 N 
ATOM      8  C   UNL     1      -2.084  -1.948  -7.838  1.00  0.00     0.066 A 
ATOM      9  C   UNL     1      -1.714  -0.696  -7.363  1.00  0.00     0.046 A 
ATOM     10  H   UNL     1      -2.864  -3.896 -10.236  1.00  0.00     0.170 HD
ATOM     11  H   UNL     1      -2.217  -3.286  -6.249  1.00  0.00     0.170 HD
ENDROOT
BRANCH   1  12
ATOM     12  S   UNL     1      -1.088   1.969  -7.633  1.00  0.00     0.053 S 
ATOM     13  O   UNL     1      -1.975   2.149  -6.387  1.00  0.00    -0.254 OA
BRANCH  12  14
ATOM     14  C   UNL     1       0.557   1.645  -6.902  1.00  0.00     0.110 C 
BRANCH  14  15
ATOM     15  C   UNL     1       1.486   1.296  -8.031  1.00  0.00     0.010 C 
ATOM     16  C   UNL     1       2.018  -0.097  -7.769  1.00  0.00     0.005 C 
ENDBRANCH  14  15
ENDBRANCH  12  14
ENDBRANCH   1  12
BRANCH   6  17
ATOM     17  N   UNL     1      -2.928  -5.284  -7.986  1.00  0.00    -0.140 NA
BRANCH  17  18
ATOM     18  C   UNL     1      -3.629  -6.051  -8.958  1.00  0.00     0.436 C 
ATOM     19  O   UNL     1      -4.844  -6.285  -8.718  1.00  0.00    -0.222 OA
BRANCH  18  20
ATOM     20  O   UNL     1      -3.066  -6.538 -10.114  1.00  0.00    -0.451 OA
ATOM     21  C   UNL     1      -2.249  -7.712 -10.124  1.00  0.00     0.284 C 
ENDBRANCH  18  20
ENDBRANCH  17  18
ENDBRANCH   6  17
TORSDOF 6
