REMARK VINA RESULT:      -5.0      8.333     12.806
REMARK SMILES CCC[S@](=O)c1ccc2[nH]/c(=N\C(=O)OC)[nH]c2c1
REMARK SMILES IDX 6 1 7 2 8 3 9 4 10 5 11 6 17 7 18 8 19 9 4 12 5 13 3 14 2 15
REMARK SMILES IDX 1 16 12 17 13 18 14 19 15 20 16 21
REMARK H PARENT 10 10 17 11
ROOT
ATOM      1  C   UNL     1     -27.609  -0.648  -5.673  1.00  0.00     0.041 A 
ATOM      2  C   UNL     1     -27.159   0.126  -6.704  1.00  0.00     0.020 A 
ATOM      3  C   UNL     1     -26.718   1.436  -6.500  1.00  0.00     0.029 A 
ATOM      4  C   UNL     1     -26.734   1.973  -5.220  1.00  0.00     0.065 A 
ATOM      5  N   UNL     1     -26.370   3.185  -4.759  1.00  0.00    -0.324 N 
ATOM      6  C   UNL     1     -26.606   3.143  -3.420  1.00  0.00     0.211 A 
ATOM      7  N   UNL     1     -27.098   1.941  -3.077  1.00  0.00    -0.324 N 
ATOM      8  C   UNL     1     -27.188   1.187  -4.188  1.00  0.00     0.066 A 
ATOM      9  C   UNL     1     -27.625  -0.114  -4.399  1.00  0.00     0.046 A 
ATOM     10  H   UNL     1     -26.011   3.939  -5.281  1.00  0.00     0.170 HD
ATOM     11  H   UNL     1     -27.350   1.659  -2.168  1.00  0.00     0.170 HD
ENDROOT
BRANCH   1  12
ATOM     12  S   UNL     1     -28.171  -2.323  -5.945  1.00  0.00     0.053 S 
ATOM     13  O   UNL     1     -27.944  -2.530  -7.454  1.00  0.00    -0.254 OA
BRANCH  12  14
ATOM     14  C   UNL     1     -26.826  -3.315  -5.205  1.00  0.00     0.110 C 
BRANCH  14  15
ATOM     15  C   UNL     1     -25.656  -3.256  -6.148  1.00  0.00     0.010 C 
ATOM     16  C   UNL     1     -24.566  -4.138  -5.577  1.00  0.00     0.005 C 
ENDBRANCH  14  15
ENDBRANCH  12  14
ENDBRANCH   1  12
BRANCH   6  17
ATOM     17  N   UNL     1     -26.359   4.165  -2.669  1.00  0.00    -0.140 NA
BRANCH  17  18
ATOM     18  C   UNL     1     -25.092   4.811  -2.621  1.00  0.00     0.436 C 
ATOM     19  O   UNL     1     -24.347   4.660  -3.627  1.00  0.00    -0.222 OA
BRANCH  18  20
ATOM     20  O   UNL     1     -24.649   5.570  -1.564  1.00  0.00    -0.451 OA
ATOM     21  C   UNL     1     -23.367   5.365  -0.966  1.00  0.00     0.284 C 
ENDBRANCH  18  20
ENDBRANCH  17  18
ENDBRANCH   6  17
TORSDOF 6
