REMARK VINA RESULT:      -5.4      6.802     11.093
REMARK SMILES CCC[S@](=O)c1ccc2[nH]/c(=N\C(=O)OC)[nH]c2c1
REMARK SMILES IDX 6 1 7 2 8 3 9 4 10 5 11 6 17 7 18 8 19 9 4 12 5 13 3 14 2 15
REMARK SMILES IDX 1 16 12 17 13 18 14 19 15 20 16 21
REMARK H PARENT 10 10 17 11
ROOT
ATOM      1  C   UNL     1     -27.532   3.409  -4.616  1.00  0.00     0.041 A 
ATOM      2  C   UNL     1     -27.860   4.693  -4.950  1.00  0.00     0.020 A 
ATOM      3  C   UNL     1     -27.222   5.789  -4.364  1.00  0.00     0.029 A 
ATOM      4  C   UNL     1     -26.228   5.579  -3.418  1.00  0.00     0.065 A 
ATOM      5  N   UNL     1     -25.471   6.444  -2.716  1.00  0.00    -0.324 N 
ATOM      6  C   UNL     1     -24.668   5.666  -1.940  1.00  0.00     0.211 A 
ATOM      7  N   UNL     1     -24.929   4.367  -2.164  1.00  0.00    -0.324 N 
ATOM      8  C   UNL     1     -25.904   4.285  -3.088  1.00  0.00     0.066 A 
ATOM      9  C   UNL     1     -26.543   3.200  -3.675  1.00  0.00     0.046 A 
ATOM     10  H   UNL     1     -25.495   7.428  -2.756  1.00  0.00     0.170 HD
ATOM     11  H   UNL     1     -24.483   3.606  -1.728  1.00  0.00     0.170 HD
ENDROOT
BRANCH   1  12
ATOM     12  S   UNL     1     -28.355   2.014  -5.371  1.00  0.00     0.053 S 
ATOM     13  O   UNL     1     -29.557   2.658  -6.086  1.00  0.00    -0.254 OA
BRANCH  12  14
ATOM     14  C   UNL     1     -27.241   1.607  -6.763  1.00  0.00     0.110 C 
BRANCH  14  15
ATOM     15  C   UNL     1     -26.188   0.673  -6.235  1.00  0.00     0.010 C 
ATOM     16  C   UNL     1     -26.842  -0.210  -5.194  1.00  0.00     0.005 C 
ENDBRANCH  14  15
ENDBRANCH  12  14
ENDBRANCH   1  12
BRANCH   6  17
ATOM     17  N   UNL     1     -23.809   6.196  -1.134  1.00  0.00    -0.140 NA
BRANCH  17  18
ATOM     18  C   UNL     1     -23.074   5.447  -0.172  1.00  0.00     0.436 C 
ATOM     19  O   UNL     1     -21.921   5.872   0.108  1.00  0.00    -0.222 OA
BRANCH  18  20
ATOM     20  O   UNL     1     -23.544   4.315   0.451  1.00  0.00    -0.451 OA
ATOM     21  C   UNL     1     -23.065   3.899   1.733  1.00  0.00     0.284 C 
ENDBRANCH  18  20
ENDBRANCH  17  18
ENDBRANCH   6  17
TORSDOF 6
