MODEL 1
REMARK VINA RESULT:      -5.4      0.000      0.000
REMARK SMILES CCC[S@](=O)c1ccc2[nH]/c(=N\C(=O)OC)[nH]c2c1
REMARK SMILES IDX 6 1 7 2 8 3 9 4 10 5 11 6 17 7 18 8 19 9 4 12 5 13 3 14 2 15
REMARK SMILES IDX 1 16 12 17 13 18 14 19 15 20 16 21
REMARK H PARENT 10 10 17 11
ROOT
ATOM      1  C   UNL     1     -16.680 -13.628 -15.832  1.00  0.00     0.041 A 
ATOM      2  C   UNL     1     -17.401 -12.468 -15.874  1.00  0.00     0.020 A 
ATOM      3  C   UNL     1     -17.108 -11.392 -15.033  1.00  0.00     0.029 A 
ATOM      4  C   UNL     1     -16.059 -11.494 -14.129  1.00  0.00     0.065 A 
ATOM      5  N   UNL     1     -15.577 -10.621 -13.224  1.00  0.00    -0.324 N 
ATOM      6  C   UNL     1     -14.542 -11.268 -12.621  1.00  0.00     0.211 A 
ATOM      7  N   UNL     1     -14.400 -12.496 -13.145  1.00  0.00    -0.324 N 
ATOM      8  C   UNL     1     -15.340 -12.663 -14.094  1.00  0.00     0.066 A 
ATOM      9  C   UNL     1     -15.637 -13.730 -14.933  1.00  0.00     0.046 A 
ATOM     10  H   UNL     1     -15.904  -9.711 -13.038  1.00  0.00     0.170 HD
ATOM     11  H   UNL     1     -13.724 -13.161 -12.880  1.00  0.00     0.170 HD
ENDROOT
BRANCH   1  12
ATOM     12  S   UNL     1     -17.064 -14.999 -16.913  1.00  0.00     0.053 S 
ATOM     13  O   UNL     1     -16.937 -16.223 -15.988  1.00  0.00    -0.254 OA
BRANCH  12  14
ATOM     14  C   UNL     1     -18.874 -14.846 -17.117  1.00  0.00     0.110 C 
BRANCH  14  15
ATOM     15  C   UNL     1     -19.184 -15.108 -18.565  1.00  0.00     0.010 C 
ATOM     16  C   UNL     1     -17.874 -15.086 -19.323  1.00  0.00     0.005 C 
ENDBRANCH  14  15
ENDBRANCH  12  14
ENDBRANCH   1  12
BRANCH   6  17
ATOM     17  N   UNL     1     -13.855 -10.696 -11.688  1.00  0.00    -0.140 NA
BRANCH  17  18
ATOM     18  C   UNL     1     -13.264 -11.406 -10.606  1.00  0.00     0.436 C 
ATOM     19  O   UNL     1     -13.788 -11.236  -9.472  1.00  0.00    -0.222 OA
BRANCH  18  20
ATOM     20  O   UNL     1     -12.181 -12.243 -10.728  1.00  0.00    -0.451 OA
ATOM     21  C   UNL     1     -12.266 -13.642 -10.442  1.00  0.00     0.284 C 
ENDBRANCH  18  20
ENDBRANCH  17  18
ENDBRANCH   6  17
TORSDOF 6
ENDMDL
MODEL 2
REMARK VINA RESULT:      -4.9      2.389      3.009
REMARK SMILES CCC[S@](=O)c1ccc2[nH]/c(=N\C(=O)OC)[nH]c2c1
REMARK SMILES IDX 6 1 7 2 8 3 9 4 10 5 11 6 17 7 18 8 19 9 4 12 5 13 3 14 2 15
REMARK SMILES IDX 1 16 12 17 13 18 14 19 15 20 16 21
REMARK H PARENT 10 10 17 11
ROOT
ATOM      1  C   UNL     1     -17.796 -14.198 -17.039  1.00  0.00     0.041 A 
ATOM      2  C   UNL     1     -18.849 -14.622 -16.278  1.00  0.00     0.020 A 
ATOM      3  C   UNL     1     -19.230 -13.950 -15.114  1.00  0.00     0.029 A 
ATOM      4  C   UNL     1     -18.527 -12.823 -14.711  1.00  0.00     0.065 A 
ATOM      5  N   UNL     1     -18.685 -12.008 -13.651  1.00  0.00    -0.324 N 
ATOM      6  C   UNL     1     -17.706 -11.071 -13.773  1.00  0.00     0.211 A 
ATOM      7  N   UNL     1     -16.976 -11.309 -14.875  1.00  0.00    -0.324 N 
ATOM      8  C   UNL     1     -17.471 -12.403 -15.483  1.00  0.00     0.066 A 
ATOM      9  C   UNL     1     -17.098 -13.076 -16.640  1.00  0.00     0.046 A 
ATOM     10  H   UNL     1     -19.363 -12.077 -12.940  1.00  0.00     0.170 HD
ATOM     11  H   UNL     1     -16.210 -10.774 -15.186  1.00  0.00     0.170 HD
ENDROOT
BRANCH   1  12
ATOM     12  S   UNL     1     -17.318 -15.064 -18.528  1.00  0.00     0.053 S 
ATOM     13  O   UNL     1     -15.830 -15.381 -18.288  1.00  0.00    -0.254 OA
BRANCH  12  14
ATOM     14  C   UNL     1     -18.108 -16.697 -18.305  1.00  0.00     0.110 C 
BRANCH  14  15
ATOM     15  C   UNL     1     -19.090 -16.876 -19.430  1.00  0.00     0.010 C 
ATOM     16  C   UNL     1     -19.551 -15.498 -19.855  1.00  0.00     0.005 C 
ENDBRANCH  14  15
ENDBRANCH  12  14
ENDBRANCH   1  12
BRANCH   6  17
ATOM     17  N   UNL     1     -17.579 -10.126 -12.901  1.00  0.00    -0.140 NA
BRANCH  17  18
ATOM     18  C   UNL     1     -16.692 -10.201 -11.791  1.00  0.00     0.436 C 
ATOM     19  O   UNL     1     -17.215 -10.450 -10.671  1.00  0.00    -0.222 OA
BRANCH  18  20
ATOM     20  O   UNL     1     -15.332 -10.019 -11.873  1.00  0.00    -0.451 OA
ATOM     21  C   UNL     1     -14.435 -11.104 -12.126  1.00  0.00     0.284 C 
ENDBRANCH  18  20
ENDBRANCH  17  18
ENDBRANCH   6  17
TORSDOF 6
ENDMDL
MODEL 3
REMARK VINA RESULT:      -4.9      3.004      3.411
REMARK SMILES CCC[S@](=O)c1ccc2[nH]/c(=N\C(=O)OC)[nH]c2c1
REMARK SMILES IDX 6 1 7 2 8 3 9 4 10 5 11 6 17 7 18 8 19 9 4 12 5 13 3 14 2 15
REMARK SMILES IDX 1 16 12 17 13 18 14 19 15 20 16 21
REMARK H PARENT 10 10 17 11
ROOT
ATOM      1  C   UNL     1     -17.442 -13.897 -15.603  1.00  0.00     0.041 A 
ATOM      2  C   UNL     1     -17.122 -12.762 -16.292  1.00  0.00     0.020 A 
ATOM      3  C   UNL     1     -16.924 -11.541 -15.642  1.00  0.00     0.029 A 
ATOM      4  C   UNL     1     -17.053 -11.470 -14.262  1.00  0.00     0.065 A 
ATOM      5  N   UNL     1     -16.917 -10.437 -13.407  1.00  0.00    -0.324 N 
ATOM      6  C   UNL     1     -17.160 -10.961 -12.175  1.00  0.00     0.211 A 
ATOM      7  N   UNL     1     -17.435 -12.272 -12.277  1.00  0.00    -0.324 N 
ATOM      8  C   UNL     1     -17.374 -12.617 -13.577  1.00  0.00     0.066 A 
ATOM      9  C   UNL     1     -17.570 -13.827 -14.230  1.00  0.00     0.046 A 
ATOM     10  H   UNL     1     -16.691  -9.505 -13.629  1.00  0.00     0.170 HD
ATOM     11  H   UNL     1     -17.645 -12.877 -11.530  1.00  0.00     0.170 HD
ENDROOT
BRANCH   1  12
ATOM     12  S   UNL     1     -17.693 -15.454 -16.444  1.00  0.00     0.053 S 
ATOM     13  O   UNL     1     -19.141 -15.824 -16.075  1.00  0.00    -0.254 OA
BRANCH  12  14
ATOM     14  C   UNL     1     -17.853 -14.937 -18.191  1.00  0.00     0.110 C 
BRANCH  14  15
ATOM     15  C   UNL     1     -19.296 -15.109 -18.578  1.00  0.00     0.010 C 
ATOM     16  C   UNL     1     -19.330 -15.531 -20.031  1.00  0.00     0.005 C 
ENDBRANCH  14  15
ENDBRANCH  12  14
ENDBRANCH   1  12
BRANCH   6  17
ATOM     17  N   UNL     1     -17.109 -10.220 -11.117  1.00  0.00    -0.140 NA
BRANCH  17  18
ATOM     18  C   UNL     1     -18.156 -10.158 -10.155  1.00  0.00     0.436 C 
ATOM     19  O   UNL     1     -19.155 -10.898 -10.365  1.00  0.00    -0.222 OA
BRANCH  18  20
ATOM     20  O   UNL     1     -18.137  -9.354  -9.040  1.00  0.00    -0.451 OA
ATOM     21  C   UNL     1     -18.918  -9.648  -7.879  1.00  0.00     0.284 C 
ENDBRANCH  18  20
ENDBRANCH  17  18
ENDBRANCH   6  17
TORSDOF 6
ENDMDL
MODEL 4
REMARK VINA RESULT:      -4.9      2.421      3.066
REMARK SMILES CCC[S@](=O)c1ccc2[nH]/c(=N\C(=O)OC)[nH]c2c1
REMARK SMILES IDX 6 1 7 2 8 3 9 4 10 5 11 6 17 7 18 8 19 9 4 12 5 13 3 14 2 15
REMARK SMILES IDX 1 16 12 17 13 18 14 19 15 20 16 21
REMARK H PARENT 10 10 17 11
ROOT
ATOM      1  C   UNL     1     -18.050 -14.541 -16.866  1.00  0.00     0.041 A 
ATOM      2  C   UNL     1     -16.910 -13.904 -17.268  1.00  0.00     0.020 A 
ATOM      3  C   UNL     1     -16.429 -12.773 -16.603  1.00  0.00     0.029 A 
ATOM      4  C   UNL     1     -17.119 -12.277 -15.506  1.00  0.00     0.065 A 
ATOM      5  N   UNL     1     -16.875 -11.223 -14.703  1.00  0.00    -0.324 N 
ATOM      6  C   UNL     1     -17.890 -11.223 -13.797  1.00  0.00     0.211 A 
ATOM      7  N   UNL     1     -18.726 -12.246 -14.041  1.00  0.00    -0.324 N 
ATOM      8  C   UNL     1     -18.264 -12.924 -15.108  1.00  0.00     0.066 A 
ATOM      9  C   UNL     1     -18.737 -14.048 -15.774  1.00  0.00     0.046 A 
ATOM     10  H   UNL     1     -16.123 -10.589 -14.761  1.00  0.00     0.170 HD
ATOM     11  H   UNL     1     -19.537 -12.463 -13.527  1.00  0.00     0.170 HD
ENDROOT
BRANCH   1  12
ATOM     12  S   UNL     1     -18.657 -15.987 -17.723  1.00  0.00     0.053 S 
ATOM     13  O   UNL     1     -19.746 -16.526 -16.777  1.00  0.00    -0.254 OA
BRANCH  12  14
ATOM     14  C   UNL     1     -19.641 -15.257 -19.080  1.00  0.00     0.110 C 
BRANCH  14  15
ATOM     15  C   UNL     1     -18.999 -15.678 -20.374  1.00  0.00     0.010 C 
ATOM     16  C   UNL     1     -17.648 -16.273 -20.039  1.00  0.00     0.005 C 
ENDBRANCH  14  15
ENDBRANCH  12  14
ENDBRANCH   1  12
BRANCH   6  17
ATOM     17  N   UNL     1     -17.953 -10.324 -12.871  1.00  0.00    -0.140 NA
BRANCH  17  18
ATOM     18  C   UNL     1     -17.014 -10.232 -11.806  1.00  0.00     0.436 C 
ATOM     19  O   UNL     1     -17.490 -10.193 -10.640  1.00  0.00    -0.222 OA
BRANCH  18  20
ATOM     20  O   UNL     1     -15.651 -10.184 -11.977  1.00  0.00    -0.451 OA
ATOM     21  C   UNL     1     -14.809 -11.306 -11.695  1.00  0.00     0.284 C 
ENDBRANCH  18  20
ENDBRANCH  17  18
ENDBRANCH   6  17
TORSDOF 6
ENDMDL
MODEL 5
REMARK VINA RESULT:      -4.8      1.754      2.151
REMARK SMILES CCC[S@](=O)c1ccc2[nH]/c(=N\C(=O)OC)[nH]c2c1
REMARK SMILES IDX 6 1 7 2 8 3 9 4 10 5 11 6 17 7 18 8 19 9 4 12 5 13 3 14 2 15
REMARK SMILES IDX 1 16 12 17 13 18 14 19 15 20 16 21
REMARK H PARENT 10 10 17 11
ROOT
ATOM      1  C   UNL     1     -16.525 -13.581 -15.846  1.00  0.00     0.041 A 
ATOM      2  C   UNL     1     -17.308 -12.462 -15.848  1.00  0.00     0.020 A 
ATOM      3  C   UNL     1     -17.061 -11.393 -14.982  1.00  0.00     0.029 A 
ATOM      4  C   UNL     1     -15.995 -11.460 -14.096  1.00  0.00     0.065 A 
ATOM      5  N   UNL     1     -15.547 -10.585 -13.175  1.00  0.00    -0.324 N 
ATOM      6  C   UNL     1     -14.470 -11.190 -12.604  1.00  0.00     0.211 A 
ATOM      7  N   UNL     1     -14.269 -12.395 -13.161  1.00  0.00    -0.324 N 
ATOM      8  C   UNL     1     -15.212 -12.589 -14.101  1.00  0.00     0.066 A 
ATOM      9  C   UNL     1     -15.464 -13.649 -14.964  1.00  0.00     0.046 A 
ATOM     10  H   UNL     1     -15.921  -9.700 -12.961  1.00  0.00     0.170 HD
ATOM     11  H   UNL     1     -13.553 -13.028 -12.923  1.00  0.00     0.170 HD
ENDROOT
BRANCH   1  12
ATOM     12  S   UNL     1     -16.849 -14.944 -16.957  1.00  0.00     0.053 S 
ATOM     13  O   UNL     1     -16.307 -14.435 -18.305  1.00  0.00    -0.254 OA
BRANCH  12  14
ATOM     14  C   UNL     1     -15.584 -16.167 -16.460  1.00  0.00     0.110 C 
BRANCH  14  15
ATOM     15  C   UNL     1     -15.020 -16.763 -17.720  1.00  0.00     0.010 C 
ATOM     16  C   UNL     1     -13.533 -16.951 -17.508  1.00  0.00     0.005 C 
ENDBRANCH  14  15
ENDBRANCH  12  14
ENDBRANCH   1  12
BRANCH   6  17
ATOM     17  N   UNL     1     -13.801 -10.605 -11.666  1.00  0.00    -0.140 NA
BRANCH  17  18
ATOM     18  C   UNL     1     -13.248 -11.297 -10.552  1.00  0.00     0.436 C 
ATOM     19  O   UNL     1     -12.274 -12.060 -10.793  1.00  0.00    -0.222 OA
BRANCH  18  20
ATOM     20  O   UNL     1     -13.709 -11.182  -9.262  1.00  0.00    -0.451 OA
ATOM     21  C   UNL     1     -13.094 -11.872  -8.171  1.00  0.00     0.284 C 
ENDBRANCH  18  20
ENDBRANCH  17  18
ENDBRANCH   6  17
TORSDOF 6
ENDMDL
MODEL 6
REMARK VINA RESULT:      -4.6      4.096      5.237
REMARK SMILES CCC[S@](=O)c1ccc2[nH]/c(=N\C(=O)OC)[nH]c2c1
REMARK SMILES IDX 6 1 7 2 8 3 9 4 10 5 11 6 17 7 18 8 19 9 4 12 5 13 3 14 2 15
REMARK SMILES IDX 1 16 12 17 13 18 14 19 15 20 16 21
REMARK H PARENT 10 10 17 11
ROOT
ATOM      1  C   UNL     1     -17.896 -15.097 -19.124  1.00  0.00     0.041 A 
ATOM      2  C   UNL     1     -16.712 -14.598 -18.662  1.00  0.00     0.020 A 
ATOM      3  C   UNL     1     -16.593 -14.064 -17.376  1.00  0.00     0.029 A 
ATOM      4  C   UNL     1     -17.701 -14.036 -16.540  1.00  0.00     0.065 A 
ATOM      5  N   UNL     1     -17.853 -13.586 -15.280  1.00  0.00    -0.324 N 
ATOM      6  C   UNL     1     -19.159 -13.818 -14.974  1.00  0.00     0.211 A 
ATOM      7  N   UNL     1     -19.781 -14.392 -16.017  1.00  0.00    -0.324 N 
ATOM      8  C   UNL     1     -18.888 -14.541 -17.013  1.00  0.00     0.066 A 
ATOM      9  C   UNL     1     -18.999 -15.070 -18.292  1.00  0.00     0.046 A 
ATOM     10  H   UNL     1     -17.166 -13.176 -14.705  1.00  0.00     0.170 HD
ATOM     11  H   UNL     1     -20.728 -14.659 -16.047  1.00  0.00     0.170 HD
ENDROOT
BRANCH   1  12
ATOM     12  S   UNL     1     -18.038 -15.779 -20.771  1.00  0.00     0.053 S 
ATOM     13  O   UNL     1     -16.857 -16.765 -20.846  1.00  0.00    -0.254 OA
BRANCH  12  14
ATOM     14  C   UNL     1     -19.475 -16.897 -20.612  1.00  0.00     0.110 C 
BRANCH  14  15
ATOM     15  C   UNL     1     -20.256 -16.806 -21.893  1.00  0.00     0.010 C 
ATOM     16  C   UNL     1     -21.030 -15.505 -21.863  1.00  0.00     0.005 C 
ENDBRANCH  14  15
ENDBRANCH  12  14
ENDBRANCH   1  12
BRANCH   6  17
ATOM     17  N   UNL     1     -19.637 -13.495 -13.818  1.00  0.00    -0.140 NA
BRANCH  17  18
ATOM     18  C   UNL     1     -19.463 -12.210 -13.231  1.00  0.00     0.436 C 
ATOM     19  O   UNL     1     -20.086 -11.995 -12.157  1.00  0.00    -0.222 OA
BRANCH  18  20
ATOM     20  O   UNL     1     -18.674 -11.217 -13.761  1.00  0.00    -0.451 OA
ATOM     21  C   UNL     1     -17.596 -10.630 -13.028  1.00  0.00     0.284 C 
ENDBRANCH  18  20
ENDBRANCH  17  18
ENDBRANCH   6  17
TORSDOF 6
ENDMDL
MODEL 7
REMARK VINA RESULT:      -4.6      3.761      5.422
REMARK SMILES CCC[S@](=O)c1ccc2[nH]/c(=N\C(=O)OC)[nH]c2c1
REMARK SMILES IDX 6 1 7 2 8 3 9 4 10 5 11 6 17 7 18 8 19 9 4 12 5 13 3 14 2 15
REMARK SMILES IDX 1 16 12 17 13 18 14 19 15 20 16 21
REMARK H PARENT 10 10 17 11
ROOT
ATOM      1  C   UNL     1     -18.105 -15.573 -20.082  1.00  0.00     0.041 A 
ATOM      2  C   UNL     1     -16.785 -15.235 -19.986  1.00  0.00     0.020 A 
ATOM      3  C   UNL     1     -16.276 -14.581 -18.861  1.00  0.00     0.029 A 
ATOM      4  C   UNL     1     -17.124 -14.263 -17.809  1.00  0.00     0.065 A 
ATOM      5  N   UNL     1     -16.892 -13.648 -16.634  1.00  0.00    -0.324 N 
ATOM      6  C   UNL     1     -18.100 -13.613 -16.006  1.00  0.00     0.211 A 
ATOM      7  N   UNL     1     -19.036 -14.191 -16.776  1.00  0.00    -0.324 N 
ATOM      8  C   UNL     1     -18.450 -14.608 -17.914  1.00  0.00     0.066 A 
ATOM      9  C   UNL     1     -18.950 -15.258 -19.036  1.00  0.00     0.046 A 
ATOM     10  H   UNL     1     -16.034 -13.298 -16.302  1.00  0.00     0.170 HD
ATOM     11  H   UNL     1     -19.988 -14.292 -16.548  1.00  0.00     0.170 HD
ENDROOT
BRANCH   1  12
ATOM     12  S   UNL     1     -18.746 -16.409 -21.526  1.00  0.00     0.053 S 
ATOM     13  O   UNL     1     -18.190 -15.573 -22.693  1.00  0.00    -0.254 OA
BRANCH  12  14
ATOM     14  C   UNL     1     -17.717 -17.918 -21.597  1.00  0.00     0.110 C 
BRANCH  14  15
ATOM     15  C   UNL     1     -18.500 -19.025 -20.946  1.00  0.00     0.010 C 
ATOM     16  C   UNL     1     -19.967 -18.665 -21.047  1.00  0.00     0.005 C 
ENDBRANCH  14  15
ENDBRANCH  12  14
ENDBRANCH   1  12
BRANCH   6  17
ATOM     17  N   UNL     1     -18.224 -13.078 -14.837  1.00  0.00    -0.140 NA
BRANCH  17  18
ATOM     18  C   UNL     1     -17.642 -11.829 -14.482  1.00  0.00     0.436 C 
ATOM     19  O   UNL     1     -18.435 -10.933 -14.085  1.00  0.00    -0.222 OA
BRANCH  18  20
ATOM     20  O   UNL     1     -16.297 -11.554 -14.550  1.00  0.00    -0.451 OA
ATOM     21  C   UNL     1     -15.504 -11.350 -13.378  1.00  0.00     0.284 C 
ENDBRANCH  18  20
ENDBRANCH  17  18
ENDBRANCH   6  17
TORSDOF 6
ENDMDL
MODEL 8
REMARK VINA RESULT:      -4.4      3.789      4.465
REMARK SMILES CCC[S@](=O)c1ccc2[nH]/c(=N\C(=O)OC)[nH]c2c1
REMARK SMILES IDX 6 1 7 2 8 3 9 4 10 5 11 6 17 7 18 8 19 9 4 12 5 13 3 14 2 15
REMARK SMILES IDX 1 16 12 17 13 18 14 19 15 20 16 21
REMARK H PARENT 10 10 17 11
ROOT
ATOM      1  C   UNL     1     -20.756 -13.537 -14.264  1.00  0.00     0.041 A 
ATOM      2  C   UNL     1     -20.147 -14.270 -15.242  1.00  0.00     0.020 A 
ATOM      3  C   UNL     1     -18.787 -14.125 -15.528  1.00  0.00     0.029 A 
ATOM      4  C   UNL     1     -18.027 -13.216 -14.805  1.00  0.00     0.065 A 
ATOM      5  N   UNL     1     -16.722 -12.890 -14.879  1.00  0.00    -0.324 N 
ATOM      6  C   UNL     1     -16.539 -11.938 -13.923  1.00  0.00     0.211 A 
ATOM      7  N   UNL     1     -17.697 -11.694 -13.288  1.00  0.00    -0.324 N 
ATOM      8  C   UNL     1     -18.647 -12.484 -13.822  1.00  0.00     0.066 A 
ATOM      9  C   UNL     1     -20.000 -12.633 -13.543  1.00  0.00     0.046 A 
ATOM     10  H   UNL     1     -16.047 -13.261 -15.493  1.00  0.00     0.170 HD
ATOM     11  H   UNL     1     -17.828 -11.048 -12.557  1.00  0.00     0.170 HD
ENDROOT
BRANCH   1  12
ATOM     12  S   UNL     1     -22.496 -13.730 -13.905  1.00  0.00     0.053 S 
ATOM     13  O   UNL     1     -22.498 -14.528 -12.589  1.00  0.00    -0.254 OA
BRANCH  12  14
ATOM     14  C   UNL     1     -22.973 -12.054 -13.350  1.00  0.00     0.110 C 
BRANCH  14  15
ATOM     15  C   UNL     1     -23.905 -11.489 -14.386  1.00  0.00     0.010 C 
ATOM     16  C   UNL     1     -24.105 -12.550 -15.446  1.00  0.00     0.005 C 
ENDBRANCH  14  15
ENDBRANCH  12  14
ENDBRANCH   1  12
BRANCH   6  17
ATOM     17  N   UNL     1     -15.377 -11.406 -13.731  1.00  0.00    -0.140 NA
BRANCH  17  18
ATOM     18  C   UNL     1     -14.862 -11.097 -12.441  1.00  0.00     0.436 C 
ATOM     19  O   UNL     1     -15.547 -10.305 -11.739  1.00  0.00    -0.222 OA
BRANCH  18  20
ATOM     20  O   UNL     1     -13.689 -11.603 -11.934  1.00  0.00    -0.451 OA
ATOM     21  C   UNL     1     -13.162 -11.182 -10.673  1.00  0.00     0.284 C 
ENDBRANCH  18  20
ENDBRANCH  17  18
ENDBRANCH   6  17
TORSDOF 6
ENDMDL
MODEL 9
REMARK VINA RESULT:      -4.4      2.518      3.417
REMARK SMILES CCC[S@](=O)c1ccc2[nH]/c(=N\C(=O)OC)[nH]c2c1
REMARK SMILES IDX 6 1 7 2 8 3 9 4 10 5 11 6 17 7 18 8 19 9 4 12 5 13 3 14 2 15
REMARK SMILES IDX 1 16 12 17 13 18 14 19 15 20 16 21
REMARK H PARENT 10 10 17 11
ROOT
ATOM      1  C   UNL     1     -18.393 -14.626 -17.078  1.00  0.00     0.041 A 
ATOM      2  C   UNL     1     -17.127 -14.249 -17.427  1.00  0.00     0.020 A 
ATOM      3  C   UNL     1     -16.449 -13.237 -16.743  1.00  0.00     0.029 A 
ATOM      4  C   UNL     1     -17.068 -12.593 -15.680  1.00  0.00     0.065 A 
ATOM      5  N   UNL     1     -16.643 -11.604 -14.870  1.00  0.00    -0.324 N 
ATOM      6  C   UNL     1     -17.676 -11.379 -14.012  1.00  0.00     0.211 A 
ATOM      7  N   UNL     1     -18.697 -12.206 -14.293  1.00  0.00    -0.324 N 
ATOM      8  C   UNL     1     -18.341 -12.978 -15.336  1.00  0.00     0.066 A 
ATOM      9  C   UNL     1     -19.010 -13.986 -16.021  1.00  0.00     0.046 A 
ATOM     10  H   UNL     1     -15.773 -11.144 -14.894  1.00  0.00     0.170 HD
ATOM     11  H   UNL     1     -19.558 -12.241 -13.818  1.00  0.00     0.170 HD
ENDROOT
BRANCH   1  12
ATOM     12  S   UNL     1     -19.252 -15.922 -17.959  1.00  0.00     0.053 S 
ATOM     13  O   UNL     1     -19.541 -15.284 -19.330  1.00  0.00    -0.254 OA
BRANCH  12  14
ATOM     14  C   UNL     1     -17.904 -17.095 -18.347  1.00  0.00     0.110 C 
BRANCH  14  15
ATOM     15  C   UNL     1     -17.719 -17.977 -17.143  1.00  0.00     0.010 C 
ATOM     16  C   UNL     1     -19.093 -18.281 -16.587  1.00  0.00     0.005 C 
ENDBRANCH  14  15
ENDBRANCH  12  14
ENDBRANCH   1  12
BRANCH   6  17
ATOM     17  N   UNL     1     -17.590 -10.476 -13.093  1.00  0.00    -0.140 NA
BRANCH  17  18
ATOM     18  C   UNL     1     -16.761 -10.607 -11.943  1.00  0.00     0.436 C 
ATOM     19  O   UNL     1     -17.151 -10.016 -10.901  1.00  0.00    -0.222 OA
BRANCH  18  20
ATOM     20  O   UNL     1     -15.590 -11.326 -11.911  1.00  0.00    -0.451 OA
ATOM     21  C   UNL     1     -14.317 -10.714 -12.135  1.00  0.00     0.284 C 
ENDBRANCH  18  20
ENDBRANCH  17  18
ENDBRANCH   6  17
TORSDOF 6
ENDMDL
