REMARK VINA RESULT:      -4.8      2.951      3.687
REMARK SMILES CCC[S@](=O)c1ccc2[nH]/c(=N\C(=O)OC)[nH]c2c1
REMARK SMILES IDX 6 1 7 2 8 3 9 4 10 5 11 6 17 7 18 8 19 9 4 12 5 13 3 14 2 15
REMARK SMILES IDX 1 16 12 17 13 18 14 19 15 20 16 21
REMARK H PARENT 10 10 17 11
ROOT
ATOM      1  C   UNL     1     -17.805   3.362   3.851  1.00  0.00     0.041 A 
ATOM      2  C   UNL     1     -18.421   2.226   3.406  1.00  0.00     0.020 A 
ATOM      3  C   UNL     1     -19.462   2.275   2.475  1.00  0.00     0.029 A 
ATOM      4  C   UNL     1     -19.888   3.501   1.984  1.00  0.00     0.065 A 
ATOM      5  N   UNL     1     -20.851   3.819   1.098  1.00  0.00    -0.324 N 
ATOM      6  C   UNL     1     -20.816   5.177   1.006  1.00  0.00     0.211 A 
ATOM      7  N   UNL     1     -19.860   5.669   1.812  1.00  0.00    -0.324 N 
ATOM      8  C   UNL     1     -19.262   4.637   2.437  1.00  0.00     0.066 A 
ATOM      9  C   UNL     1     -18.227   4.583   3.363  1.00  0.00     0.046 A 
ATOM     10  H   UNL     1     -21.451   3.202   0.621  1.00  0.00     0.170 HD
ATOM     11  H   UNL     1     -19.635   6.620   1.925  1.00  0.00     0.170 HD
ENDROOT
BRANCH   1  12
ATOM     12  S   UNL     1     -16.473   3.289   5.041  1.00  0.00     0.053 S 
ATOM     13  O   UNL     1     -15.618   2.111   4.541  1.00  0.00    -0.254 OA
BRANCH  12  14
ATOM     14  C   UNL     1     -15.456   4.737   4.583  1.00  0.00     0.110 C 
BRANCH  14  15
ATOM     15  C   UNL     1     -15.380   5.631   5.789  1.00  0.00     0.010 C 
ATOM     16  C   UNL     1     -16.098   4.928   6.922  1.00  0.00     0.005 C 
ENDBRANCH  14  15
ENDBRANCH  12  14
ENDBRANCH   1  12
BRANCH   6  17
ATOM     17  N   UNL     1     -21.628   5.810   0.226  1.00  0.00    -0.140 NA
BRANCH  17  18
ATOM     18  C   UNL     1     -23.016   5.510   0.133  1.00  0.00     0.436 C 
ATOM     19  O   UNL     1     -23.506   4.827   1.073  1.00  0.00    -0.222 OA
BRANCH  18  20
ATOM     20  O   UNL     1     -23.828   5.914  -0.899  1.00  0.00    -0.451 OA
ATOM     21  C   UNL     1     -24.033   5.110  -2.064  1.00  0.00     0.284 C 
ENDBRANCH  18  20
ENDBRANCH  17  18
ENDBRANCH   6  17
TORSDOF 6
