REMARK VINA RESULT:      -4.9      3.004      3.411
REMARK SMILES CCC[S@](=O)c1ccc2[nH]/c(=N\C(=O)OC)[nH]c2c1
REMARK SMILES IDX 6 1 7 2 8 3 9 4 10 5 11 6 17 7 18 8 19 9 4 12 5 13 3 14 2 15
REMARK SMILES IDX 1 16 12 17 13 18 14 19 15 20 16 21
REMARK H PARENT 10 10 17 11
ROOT
ATOM      1  C   UNL     1     -17.442 -13.897 -15.603  1.00  0.00     0.041 A 
ATOM      2  C   UNL     1     -17.122 -12.762 -16.292  1.00  0.00     0.020 A 
ATOM      3  C   UNL     1     -16.924 -11.541 -15.642  1.00  0.00     0.029 A 
ATOM      4  C   UNL     1     -17.053 -11.470 -14.262  1.00  0.00     0.065 A 
ATOM      5  N   UNL     1     -16.917 -10.437 -13.407  1.00  0.00    -0.324 N 
ATOM      6  C   UNL     1     -17.160 -10.961 -12.175  1.00  0.00     0.211 A 
ATOM      7  N   UNL     1     -17.435 -12.272 -12.277  1.00  0.00    -0.324 N 
ATOM      8  C   UNL     1     -17.374 -12.617 -13.577  1.00  0.00     0.066 A 
ATOM      9  C   UNL     1     -17.570 -13.827 -14.230  1.00  0.00     0.046 A 
ATOM     10  H   UNL     1     -16.691  -9.505 -13.629  1.00  0.00     0.170 HD
ATOM     11  H   UNL     1     -17.645 -12.877 -11.530  1.00  0.00     0.170 HD
ENDROOT
BRANCH   1  12
ATOM     12  S   UNL     1     -17.693 -15.454 -16.444  1.00  0.00     0.053 S 
ATOM     13  O   UNL     1     -19.141 -15.824 -16.075  1.00  0.00    -0.254 OA
BRANCH  12  14
ATOM     14  C   UNL     1     -17.853 -14.937 -18.191  1.00  0.00     0.110 C 
BRANCH  14  15
ATOM     15  C   UNL     1     -19.296 -15.109 -18.578  1.00  0.00     0.010 C 
ATOM     16  C   UNL     1     -19.330 -15.531 -20.031  1.00  0.00     0.005 C 
ENDBRANCH  14  15
ENDBRANCH  12  14
ENDBRANCH   1  12
BRANCH   6  17
ATOM     17  N   UNL     1     -17.109 -10.220 -11.117  1.00  0.00    -0.140 NA
BRANCH  17  18
ATOM     18  C   UNL     1     -18.156 -10.158 -10.155  1.00  0.00     0.436 C 
ATOM     19  O   UNL     1     -19.155 -10.898 -10.365  1.00  0.00    -0.222 OA
BRANCH  18  20
ATOM     20  O   UNL     1     -18.137  -9.354  -9.040  1.00  0.00    -0.451 OA
ATOM     21  C   UNL     1     -18.918  -9.648  -7.879  1.00  0.00     0.284 C 
ENDBRANCH  18  20
ENDBRANCH  17  18
ENDBRANCH   6  17
TORSDOF 6
