REMARK VINA RESULT:      -4.9      2.389      3.009
REMARK SMILES CCC[S@](=O)c1ccc2[nH]/c(=N\C(=O)OC)[nH]c2c1
REMARK SMILES IDX 6 1 7 2 8 3 9 4 10 5 11 6 17 7 18 8 19 9 4 12 5 13 3 14 2 15
REMARK SMILES IDX 1 16 12 17 13 18 14 19 15 20 16 21
REMARK H PARENT 10 10 17 11
ROOT
ATOM      1  C   UNL     1     -17.796 -14.198 -17.039  1.00  0.00     0.041 A 
ATOM      2  C   UNL     1     -18.849 -14.622 -16.278  1.00  0.00     0.020 A 
ATOM      3  C   UNL     1     -19.230 -13.950 -15.114  1.00  0.00     0.029 A 
ATOM      4  C   UNL     1     -18.527 -12.823 -14.711  1.00  0.00     0.065 A 
ATOM      5  N   UNL     1     -18.685 -12.008 -13.651  1.00  0.00    -0.324 N 
ATOM      6  C   UNL     1     -17.706 -11.071 -13.773  1.00  0.00     0.211 A 
ATOM      7  N   UNL     1     -16.976 -11.309 -14.875  1.00  0.00    -0.324 N 
ATOM      8  C   UNL     1     -17.471 -12.403 -15.483  1.00  0.00     0.066 A 
ATOM      9  C   UNL     1     -17.098 -13.076 -16.640  1.00  0.00     0.046 A 
ATOM     10  H   UNL     1     -19.363 -12.077 -12.940  1.00  0.00     0.170 HD
ATOM     11  H   UNL     1     -16.210 -10.774 -15.186  1.00  0.00     0.170 HD
ENDROOT
BRANCH   1  12
ATOM     12  S   UNL     1     -17.318 -15.064 -18.528  1.00  0.00     0.053 S 
ATOM     13  O   UNL     1     -15.830 -15.381 -18.288  1.00  0.00    -0.254 OA
BRANCH  12  14
ATOM     14  C   UNL     1     -18.108 -16.697 -18.305  1.00  0.00     0.110 C 
BRANCH  14  15
ATOM     15  C   UNL     1     -19.090 -16.876 -19.430  1.00  0.00     0.010 C 
ATOM     16  C   UNL     1     -19.551 -15.498 -19.855  1.00  0.00     0.005 C 
ENDBRANCH  14  15
ENDBRANCH  12  14
ENDBRANCH   1  12
BRANCH   6  17
ATOM     17  N   UNL     1     -17.579 -10.126 -12.901  1.00  0.00    -0.140 NA
BRANCH  17  18
ATOM     18  C   UNL     1     -16.692 -10.201 -11.791  1.00  0.00     0.436 C 
ATOM     19  O   UNL     1     -17.215 -10.450 -10.671  1.00  0.00    -0.222 OA
BRANCH  18  20
ATOM     20  O   UNL     1     -15.332 -10.019 -11.873  1.00  0.00    -0.451 OA
ATOM     21  C   UNL     1     -14.435 -11.104 -12.126  1.00  0.00     0.284 C 
ENDBRANCH  18  20
ENDBRANCH  17  18
ENDBRANCH   6  17
TORSDOF 6
