REMARK VINA RESULT:      -5.4      0.000      0.000
REMARK SMILES CCC[S@](=O)c1ccc2[nH]/c(=N\C(=O)OC)[nH]c2c1
REMARK SMILES IDX 6 1 7 2 8 3 9 4 10 5 11 6 17 7 18 8 19 9 4 12 5 13 3 14 2 15
REMARK SMILES IDX 1 16 12 17 13 18 14 19 15 20 16 21
REMARK H PARENT 10 10 17 11
ROOT
ATOM      1  C   UNL     1     -16.680 -13.628 -15.832  1.00  0.00     0.041 A 
ATOM      2  C   UNL     1     -17.401 -12.468 -15.874  1.00  0.00     0.020 A 
ATOM      3  C   UNL     1     -17.108 -11.392 -15.033  1.00  0.00     0.029 A 
ATOM      4  C   UNL     1     -16.059 -11.494 -14.129  1.00  0.00     0.065 A 
ATOM      5  N   UNL     1     -15.577 -10.621 -13.224  1.00  0.00    -0.324 N 
ATOM      6  C   UNL     1     -14.542 -11.268 -12.621  1.00  0.00     0.211 A 
ATOM      7  N   UNL     1     -14.400 -12.496 -13.145  1.00  0.00    -0.324 N 
ATOM      8  C   UNL     1     -15.340 -12.663 -14.094  1.00  0.00     0.066 A 
ATOM      9  C   UNL     1     -15.637 -13.730 -14.933  1.00  0.00     0.046 A 
ATOM     10  H   UNL     1     -15.904  -9.711 -13.038  1.00  0.00     0.170 HD
ATOM     11  H   UNL     1     -13.724 -13.161 -12.880  1.00  0.00     0.170 HD
ENDROOT
BRANCH   1  12
ATOM     12  S   UNL     1     -17.064 -14.999 -16.913  1.00  0.00     0.053 S 
ATOM     13  O   UNL     1     -16.937 -16.223 -15.988  1.00  0.00    -0.254 OA
BRANCH  12  14
ATOM     14  C   UNL     1     -18.874 -14.846 -17.117  1.00  0.00     0.110 C 
BRANCH  14  15
ATOM     15  C   UNL     1     -19.184 -15.108 -18.565  1.00  0.00     0.010 C 
ATOM     16  C   UNL     1     -17.874 -15.086 -19.323  1.00  0.00     0.005 C 
ENDBRANCH  14  15
ENDBRANCH  12  14
ENDBRANCH   1  12
BRANCH   6  17
ATOM     17  N   UNL     1     -13.855 -10.696 -11.688  1.00  0.00    -0.140 NA
BRANCH  17  18
ATOM     18  C   UNL     1     -13.264 -11.406 -10.606  1.00  0.00     0.436 C 
ATOM     19  O   UNL     1     -13.788 -11.236  -9.472  1.00  0.00    -0.222 OA
BRANCH  18  20
ATOM     20  O   UNL     1     -12.181 -12.243 -10.728  1.00  0.00    -0.451 OA
ATOM     21  C   UNL     1     -12.266 -13.642 -10.442  1.00  0.00     0.284 C 
ENDBRANCH  18  20
ENDBRANCH  17  18
ENDBRANCH   6  17
TORSDOF 6
