REMARK VINA RESULT:      -5.2      7.457     12.182
REMARK SMILES CCC[S@](=O)c1ccc2[nH]/c(=N\C(=O)OC)[nH]c2c1
REMARK SMILES IDX 6 1 7 2 8 3 9 4 10 5 11 6 17 7 18 8 19 9 4 12 5 13 3 14 2 15
REMARK SMILES IDX 1 16 12 17 13 18 14 19 15 20 16 21
REMARK H PARENT 10 10 17 11
ROOT
ATOM      1  C   UNL     1     -27.869   0.832  -5.247  1.00  0.00     0.041 A 
ATOM      2  C   UNL     1     -28.549   0.706  -4.069  1.00  0.00     0.020 A 
ATOM      3  C   UNL     1     -28.332   1.579  -3.000  1.00  0.00     0.029 A 
ATOM      4  C   UNL     1     -27.405   2.604  -3.129  1.00  0.00     0.065 A 
ATOM      5  N   UNL     1     -27.015   3.563  -2.268  1.00  0.00    -0.324 N 
ATOM      6  C   UNL     1     -26.078   4.285  -2.941  1.00  0.00     0.211 A 
ATOM      7  N   UNL     1     -25.905   3.780  -4.174  1.00  0.00    -0.324 N 
ATOM      8  C   UNL     1     -26.727   2.724  -4.317  1.00  0.00     0.066 A 
ATOM      9  C   UNL     1     -26.947   1.852  -5.376  1.00  0.00     0.046 A 
ATOM     10  H   UNL     1     -27.338   3.709  -1.349  1.00  0.00     0.170 HD
ATOM     11  H   UNL     1     -25.284   4.124  -4.855  1.00  0.00     0.170 HD
ENDROOT
BRANCH   1  12
ATOM     12  S   UNL     1     -28.154  -0.290  -6.610  1.00  0.00     0.053 S 
ATOM     13  O   UNL     1     -27.951   0.602  -7.848  1.00  0.00    -0.254 OA
BRANCH  12  14
ATOM     14  C   UNL     1     -26.636  -1.309  -6.605  1.00  0.00     0.110 C 
BRANCH  14  15
ATOM     15  C   UNL     1     -26.508  -1.914  -5.234  1.00  0.00     0.010 C 
ATOM     16  C   UNL     1     -25.374  -2.914  -5.283  1.00  0.00     0.005 C 
ENDBRANCH  14  15
ENDBRANCH  12  14
ENDBRANCH   1  12
BRANCH   6  17
ATOM     17  N   UNL     1     -25.495   5.296  -2.386  1.00  0.00    -0.140 NA
BRANCH  17  18
ATOM     18  C   UNL     1     -24.114   5.309  -2.041  1.00  0.00     0.436 C 
ATOM     19  O   UNL     1     -23.333   4.716  -2.832  1.00  0.00    -0.222 OA
BRANCH  18  20
ATOM     20  O   UNL     1     -23.602   5.917  -0.919  1.00  0.00    -0.451 OA
ATOM     21  C   UNL     1     -22.893   5.185   0.085  1.00  0.00     0.284 C 
ENDBRANCH  18  20
ENDBRANCH  17  18
ENDBRANCH   6  17
TORSDOF 6
