REMARK VINA RESULT:      -4.9      2.421      3.066
REMARK SMILES CCC[S@](=O)c1ccc2[nH]/c(=N\C(=O)OC)[nH]c2c1
REMARK SMILES IDX 6 1 7 2 8 3 9 4 10 5 11 6 17 7 18 8 19 9 4 12 5 13 3 14 2 15
REMARK SMILES IDX 1 16 12 17 13 18 14 19 15 20 16 21
REMARK H PARENT 10 10 17 11
ROOT
ATOM      1  C   UNL     1     -18.050 -14.541 -16.866  1.00  0.00     0.041 A 
ATOM      2  C   UNL     1     -16.910 -13.904 -17.268  1.00  0.00     0.020 A 
ATOM      3  C   UNL     1     -16.429 -12.773 -16.603  1.00  0.00     0.029 A 
ATOM      4  C   UNL     1     -17.119 -12.277 -15.506  1.00  0.00     0.065 A 
ATOM      5  N   UNL     1     -16.875 -11.223 -14.703  1.00  0.00    -0.324 N 
ATOM      6  C   UNL     1     -17.890 -11.223 -13.797  1.00  0.00     0.211 A 
ATOM      7  N   UNL     1     -18.726 -12.246 -14.041  1.00  0.00    -0.324 N 
ATOM      8  C   UNL     1     -18.264 -12.924 -15.108  1.00  0.00     0.066 A 
ATOM      9  C   UNL     1     -18.737 -14.048 -15.774  1.00  0.00     0.046 A 
ATOM     10  H   UNL     1     -16.123 -10.589 -14.761  1.00  0.00     0.170 HD
ATOM     11  H   UNL     1     -19.537 -12.463 -13.527  1.00  0.00     0.170 HD
ENDROOT
BRANCH   1  12
ATOM     12  S   UNL     1     -18.657 -15.987 -17.723  1.00  0.00     0.053 S 
ATOM     13  O   UNL     1     -19.746 -16.526 -16.777  1.00  0.00    -0.254 OA
BRANCH  12  14
ATOM     14  C   UNL     1     -19.641 -15.257 -19.080  1.00  0.00     0.110 C 
BRANCH  14  15
ATOM     15  C   UNL     1     -18.999 -15.678 -20.374  1.00  0.00     0.010 C 
ATOM     16  C   UNL     1     -17.648 -16.273 -20.039  1.00  0.00     0.005 C 
ENDBRANCH  14  15
ENDBRANCH  12  14
ENDBRANCH   1  12
BRANCH   6  17
ATOM     17  N   UNL     1     -17.953 -10.324 -12.871  1.00  0.00    -0.140 NA
BRANCH  17  18
ATOM     18  C   UNL     1     -17.014 -10.232 -11.806  1.00  0.00     0.436 C 
ATOM     19  O   UNL     1     -17.490 -10.193 -10.640  1.00  0.00    -0.222 OA
BRANCH  18  20
ATOM     20  O   UNL     1     -15.651 -10.184 -11.977  1.00  0.00    -0.451 OA
ATOM     21  C   UNL     1     -14.809 -11.306 -11.695  1.00  0.00     0.284 C 
ENDBRANCH  18  20
ENDBRANCH  17  18
ENDBRANCH   6  17
TORSDOF 6
