REMARK VINA RESULT:      -5.0     10.388     12.269
REMARK SMILES CCC[S@](=O)c1ccc2[nH]/c(=N\C(=O)OC)[nH]c2c1
REMARK SMILES IDX 6 1 7 2 8 3 9 4 10 5 11 6 17 7 18 8 19 9 4 12 5 13 3 14 2 15
REMARK SMILES IDX 1 16 12 17 13 18 14 19 15 20 16 21
REMARK H PARENT 10 10 17 11
ROOT
ATOM      1  C   UNL     1     -27.939   1.195  -3.720  1.00  0.00     0.041 A 
ATOM      2  C   UNL     1     -27.482   1.499  -2.469  1.00  0.00     0.020 A 
ATOM      3  C   UNL     1     -27.063   2.791  -2.136  1.00  0.00     0.029 A 
ATOM      4  C   UNL     1     -27.110   3.795  -3.093  1.00  0.00     0.065 A 
ATOM      5  N   UNL     1     -26.773   5.098  -3.032  1.00  0.00    -0.324 N 
ATOM      6  C   UNL     1     -27.033   5.591  -4.274  1.00  0.00     0.211 A 
ATOM      7  N   UNL     1     -27.514   4.617  -5.065  1.00  0.00    -0.324 N 
ATOM      8  C   UNL     1     -27.573   3.480  -4.347  1.00  0.00     0.066 A 
ATOM      9  C   UNL     1     -27.987   2.194  -4.672  1.00  0.00     0.046 A 
ATOM     10  H   UNL     1     -26.415   5.587  -2.256  1.00  0.00     0.170 HD
ATOM     11  H   UNL     1     -27.778   4.718  -6.008  1.00  0.00     0.170 HD
ENDROOT
BRANCH   1  12
ATOM     12  S   UNL     1     -28.473  -0.460  -4.135  1.00  0.00     0.053 S 
ATOM     13  O   UNL     1     -28.693  -0.387  -5.658  1.00  0.00    -0.254 OA
BRANCH  12  14
ATOM     14  C   UNL     1     -26.921  -1.418  -4.008  1.00  0.00     0.110 C 
BRANCH  14  15
ATOM     15  C   UNL     1     -26.193  -1.266  -5.315  1.00  0.00     0.010 C 
ATOM     16  C   UNL     1     -25.831  -2.654  -5.798  1.00  0.00     0.005 C 
ENDBRANCH  14  15
ENDBRANCH  12  14
ENDBRANCH   1  12
BRANCH   6  17
ATOM     17  N   UNL     1     -26.814   6.833  -4.554  1.00  0.00    -0.140 NA
BRANCH  17  18
ATOM     18  C   UNL     1     -26.881   7.875  -3.587  1.00  0.00     0.436 C 
ATOM     19  O   UNL     1     -25.855   8.046  -2.875  1.00  0.00    -0.222 OA
BRANCH  18  20
ATOM     20  O   UNL     1     -27.976   8.683  -3.394  1.00  0.00    -0.451 OA
ATOM     21  C   UNL     1     -29.142   8.593  -4.217  1.00  0.00     0.284 C 
ENDBRANCH  18  20
ENDBRANCH  17  18
ENDBRANCH   6  17
TORSDOF 6
