REMARK VINA RESULT:      -5.6      1.876      2.425
REMARK SMILES CCC[S@](=O)c1ccc2[nH]/c(=N\C(=O)OC)[nH]c2c1
REMARK SMILES IDX 6 1 7 2 8 3 9 4 10 5 11 6 17 7 18 8 19 9 4 12 5 13 3 14 2 15
REMARK SMILES IDX 1 16 12 17 13 18 14 19 15 20 16 21
REMARK H PARENT 10 10 17 11
ROOT
ATOM      1  C   UNL     1     -15.846   6.921   2.952  1.00  0.00     0.041 A 
ATOM      2  C   UNL     1     -15.412   7.580   1.837  1.00  0.00     0.020 A 
ATOM      3  C   UNL     1     -16.288   7.935   0.808  1.00  0.00     0.029 A 
ATOM      4  C   UNL     1     -17.635   7.616   0.913  1.00  0.00     0.065 A 
ATOM      5  N   UNL     1     -18.669   7.841   0.080  1.00  0.00    -0.324 N 
ATOM      6  C   UNL     1     -19.752   7.305   0.706  1.00  0.00     0.211 A 
ATOM      7  N   UNL     1     -19.387   6.772   1.883  1.00  0.00    -0.324 N 
ATOM      8  C   UNL     1     -18.063   6.954   2.038  1.00  0.00     0.066 A 
ATOM      9  C   UNL     1     -17.186   6.603   3.057  1.00  0.00     0.046 A 
ATOM     10  H   UNL     1     -18.645   8.294  -0.794  1.00  0.00     0.170 HD
ATOM     11  H   UNL     1     -19.986   6.325   2.524  1.00  0.00     0.170 HD
ENDROOT
BRANCH   1  12
ATOM     12  S   UNL     1     -14.718   6.470   4.264  1.00  0.00     0.053 S 
ATOM     13  O   UNL     1     -15.485   6.865   5.539  1.00  0.00    -0.254 OA
BRANCH  12  14
ATOM     14  C   UNL     1     -14.841   4.646   4.280  1.00  0.00     0.110 C 
BRANCH  14  15
ATOM     15  C   UNL     1     -14.180   4.142   3.026  1.00  0.00     0.010 C 
ATOM     16  C   UNL     1     -15.202   3.316   2.274  1.00  0.00     0.005 C 
ENDBRANCH  14  15
ENDBRANCH  12  14
ENDBRANCH   1  12
BRANCH   6  17
ATOM     17  N   UNL     1     -20.924   7.353   0.162  1.00  0.00    -0.140 NA
BRANCH  17  18
ATOM     18  C   UNL     1     -21.814   6.244   0.125  1.00  0.00     0.436 C 
ATOM     19  O   UNL     1     -21.396   5.172   0.639  1.00  0.00    -0.222 OA
BRANCH  18  20
ATOM     20  O   UNL     1     -23.072   6.279  -0.427  1.00  0.00    -0.451 OA
ATOM     21  C   UNL     1     -23.551   5.246  -1.293  1.00  0.00     0.284 C 
ENDBRANCH  18  20
ENDBRANCH  17  18
ENDBRANCH   6  17
TORSDOF 6
