REMARK VINA RESULT:      -5.0      1.882      2.414
REMARK SMILES CCC[S@](=O)c1ccc2[nH]/c(=N\C(=O)OC)[nH]c2c1
REMARK SMILES IDX 6 1 7 2 8 3 9 4 10 5 11 6 17 7 18 8 19 9 4 12 5 13 3 14 2 15
REMARK SMILES IDX 1 16 12 17 13 18 14 19 15 20 16 21
REMARK H PARENT 10 10 17 11
ROOT
ATOM      1  C   UNL     1     -17.179   7.581   2.033  1.00  0.00     0.041 A 
ATOM      2  C   UNL     1     -17.975   8.166   1.090  1.00  0.00     0.020 A 
ATOM      3  C   UNL     1     -19.197   7.602   0.711  1.00  0.00     0.029 A 
ATOM      4  C   UNL     1     -19.620   6.420   1.302  1.00  0.00     0.065 A 
ATOM      5  N   UNL     1     -20.734   5.684   1.120  1.00  0.00    -0.324 N 
ATOM      6  C   UNL     1     -20.607   4.631   1.973  1.00  0.00     0.211 A 
ATOM      7  N   UNL     1     -19.452   4.725   2.653  1.00  0.00    -0.324 N 
ATOM      8  C   UNL     1     -18.814   5.840   2.250  1.00  0.00     0.066 A 
ATOM      9  C   UNL     1     -17.600   6.405   2.623  1.00  0.00     0.046 A 
ATOM     10  H   UNL     1     -21.478   5.869   0.503  1.00  0.00     0.170 HD
ATOM     11  H   UNL     1     -19.127   4.088   3.329  1.00  0.00     0.170 HD
ENDROOT
BRANCH   1  12
ATOM     12  S   UNL     1     -15.618   8.309   2.512  1.00  0.00     0.053 S 
ATOM     13  O   UNL     1     -15.875   8.773   3.957  1.00  0.00    -0.254 OA
BRANCH  12  14
ATOM     14  C   UNL     1     -14.555   6.841   2.752  1.00  0.00     0.110 C 
BRANCH  14  15
ATOM     15  C   UNL     1     -13.145   7.254   2.436  1.00  0.00     0.010 C 
ATOM     16  C   UNL     1     -13.215   8.372   1.418  1.00  0.00     0.005 C 
ENDBRANCH  14  15
ENDBRANCH  12  14
ENDBRANCH   1  12
BRANCH   6  17
ATOM     17  N   UNL     1     -21.522   3.722   2.046  1.00  0.00    -0.140 NA
BRANCH  17  18
ATOM     18  C   UNL     1     -21.291   2.421   2.574  1.00  0.00     0.436 C 
ATOM     19  O   UNL     1     -22.311   1.711   2.783  1.00  0.00    -0.222 OA
BRANCH  18  20
ATOM     20  O   UNL     1     -20.047   1.911   2.862  1.00  0.00    -0.451 OA
ATOM     21  C   UNL     1     -19.469   0.845   2.104  1.00  0.00     0.284 C 
ENDBRANCH  18  20
ENDBRANCH  17  18
ENDBRANCH   6  17
TORSDOF 6
