REMARK VINA RESULT:      -4.4      3.789      4.465
REMARK SMILES CCC[S@](=O)c1ccc2[nH]/c(=N\C(=O)OC)[nH]c2c1
REMARK SMILES IDX 6 1 7 2 8 3 9 4 10 5 11 6 17 7 18 8 19 9 4 12 5 13 3 14 2 15
REMARK SMILES IDX 1 16 12 17 13 18 14 19 15 20 16 21
REMARK H PARENT 10 10 17 11
ROOT
ATOM      1  C   UNL     1     -20.756 -13.537 -14.264  1.00  0.00     0.041 A 
ATOM      2  C   UNL     1     -20.147 -14.270 -15.242  1.00  0.00     0.020 A 
ATOM      3  C   UNL     1     -18.787 -14.125 -15.528  1.00  0.00     0.029 A 
ATOM      4  C   UNL     1     -18.027 -13.216 -14.805  1.00  0.00     0.065 A 
ATOM      5  N   UNL     1     -16.722 -12.890 -14.879  1.00  0.00    -0.324 N 
ATOM      6  C   UNL     1     -16.539 -11.938 -13.923  1.00  0.00     0.211 A 
ATOM      7  N   UNL     1     -17.697 -11.694 -13.288  1.00  0.00    -0.324 N 
ATOM      8  C   UNL     1     -18.647 -12.484 -13.822  1.00  0.00     0.066 A 
ATOM      9  C   UNL     1     -20.000 -12.633 -13.543  1.00  0.00     0.046 A 
ATOM     10  H   UNL     1     -16.047 -13.261 -15.493  1.00  0.00     0.170 HD
ATOM     11  H   UNL     1     -17.828 -11.048 -12.557  1.00  0.00     0.170 HD
ENDROOT
BRANCH   1  12
ATOM     12  S   UNL     1     -22.496 -13.730 -13.905  1.00  0.00     0.053 S 
ATOM     13  O   UNL     1     -22.498 -14.528 -12.589  1.00  0.00    -0.254 OA
BRANCH  12  14
ATOM     14  C   UNL     1     -22.973 -12.054 -13.350  1.00  0.00     0.110 C 
BRANCH  14  15
ATOM     15  C   UNL     1     -23.905 -11.489 -14.386  1.00  0.00     0.010 C 
ATOM     16  C   UNL     1     -24.105 -12.550 -15.446  1.00  0.00     0.005 C 
ENDBRANCH  14  15
ENDBRANCH  12  14
ENDBRANCH   1  12
BRANCH   6  17
ATOM     17  N   UNL     1     -15.377 -11.406 -13.731  1.00  0.00    -0.140 NA
BRANCH  17  18
ATOM     18  C   UNL     1     -14.862 -11.097 -12.441  1.00  0.00     0.436 C 
ATOM     19  O   UNL     1     -15.547 -10.305 -11.739  1.00  0.00    -0.222 OA
BRANCH  18  20
ATOM     20  O   UNL     1     -13.689 -11.603 -11.934  1.00  0.00    -0.451 OA
ATOM     21  C   UNL     1     -13.162 -11.182 -10.673  1.00  0.00     0.284 C 
ENDBRANCH  18  20
ENDBRANCH  17  18
ENDBRANCH   6  17
TORSDOF 6
