REMARK VINA RESULT:      -5.8      0.000      0.000
REMARK SMILES CCC[S@](=O)c1ccc2[nH]/c(=N\C(=O)OC)[nH]c2c1
REMARK SMILES IDX 6 1 7 2 8 3 9 4 10 5 11 6 17 7 18 8 19 9 4 12 5 13 3 14 2 15
REMARK SMILES IDX 1 16 12 17 13 18 14 19 15 20 16 21
REMARK H PARENT 10 10 17 11
ROOT
ATOM      1  C   UNL     1     -17.098   7.599   2.195  1.00  0.00     0.041 A 
ATOM      2  C   UNL     1     -17.759   8.401   1.309  1.00  0.00     0.020 A 
ATOM      3  C   UNL     1     -18.990   8.030   0.762  1.00  0.00     0.029 A 
ATOM      4  C   UNL     1     -19.564   6.819   1.123  1.00  0.00     0.065 A 
ATOM      5  N   UNL     1     -20.720   6.237   0.750  1.00  0.00    -0.324 N 
ATOM      6  C   UNL     1     -20.758   5.057   1.426  1.00  0.00     0.211 A 
ATOM      7  N   UNL     1     -19.659   4.926   2.188  1.00  0.00    -0.324 N 
ATOM      8  C   UNL     1     -18.893   6.020   2.016  1.00  0.00     0.066 A 
ATOM      9  C   UNL     1     -17.669   6.394   2.556  1.00  0.00     0.046 A 
ATOM     10  H   UNL     1     -21.392   6.590   0.122  1.00  0.00     0.170 HD
ATOM     11  H   UNL     1     -19.450   4.162   2.772  1.00  0.00     0.170 HD
ENDROOT
BRANCH   1  12
ATOM     12  S   UNL     1     -15.523   8.082   2.890  1.00  0.00     0.053 S 
ATOM     13  O   UNL     1     -15.921   8.868   4.152  1.00  0.00    -0.254 OA
BRANCH  12  14
ATOM     14  C   UNL     1     -14.900   6.510   3.585  1.00  0.00     0.110 C 
BRANCH  14  15
ATOM     15  C   UNL     1     -13.399   6.600   3.619  1.00  0.00     0.010 C 
ATOM     16  C   UNL     1     -12.978   7.573   2.539  1.00  0.00     0.005 C 
ENDBRANCH  14  15
ENDBRANCH  12  14
ENDBRANCH   1  12
BRANCH   6  17
ATOM     17  N   UNL     1     -21.754   4.245   1.288  1.00  0.00    -0.140 NA
BRANCH  17  18
ATOM     18  C   UNL     1     -23.078   4.675   0.994  1.00  0.00     0.436 C 
ATOM     19  O   UNL     1     -24.008   4.092   1.615  1.00  0.00    -0.222 OA
BRANCH  18  20
ATOM     20  O   UNL     1     -23.389   5.664   0.092  1.00  0.00    -0.451 OA
ATOM     21  C   UNL     1     -23.605   5.388  -1.294  1.00  0.00     0.284 C 
ENDBRANCH  18  20
ENDBRANCH  17  18
ENDBRANCH   6  17
TORSDOF 6
