REMARK VINA RESULT:      -5.7      0.735      1.378
REMARK SMILES CCC[S@](=O)c1ccc2[nH]/c(=N\C(=O)OC)[nH]c2c1
REMARK SMILES IDX 6 1 7 2 8 3 9 4 10 5 11 6 17 7 18 8 19 9 4 12 5 13 3 14 2 15
REMARK SMILES IDX 1 16 12 17 13 18 14 19 15 20 16 21
REMARK H PARENT 10 10 17 11
ROOT
ATOM      1  C   UNL     1     -17.026   7.443   2.260  1.00  0.00     0.041 A 
ATOM      2  C   UNL     1     -17.730   8.242   1.404  1.00  0.00     0.020 A 
ATOM      3  C   UNL     1     -18.973   7.855   0.896  1.00  0.00     0.029 A 
ATOM      4  C   UNL     1     -19.515   6.632   1.265  1.00  0.00     0.065 A 
ATOM      5  N   UNL     1     -20.673   6.033   0.926  1.00  0.00    -0.324 N 
ATOM      6  C   UNL     1     -20.669   4.847   1.593  1.00  0.00     0.211 A 
ATOM      7  N   UNL     1     -19.542   4.728   2.315  1.00  0.00    -0.324 N 
ATOM      8  C   UNL     1     -18.801   5.836   2.127  1.00  0.00     0.066 A 
ATOM      9  C   UNL     1     -17.565   6.226   2.628  1.00  0.00     0.046 A 
ATOM     10  H   UNL     1     -21.372   6.381   0.325  1.00  0.00     0.170 HD
ATOM     11  H   UNL     1     -19.300   3.962   2.884  1.00  0.00     0.170 HD
ENDROOT
BRANCH   1  12
ATOM     12  S   UNL     1     -15.437   7.946   2.904  1.00  0.00     0.053 S 
ATOM     13  O   UNL     1     -15.804   9.004   3.961  1.00  0.00    -0.254 OA
BRANCH  12  14
ATOM     14  C   UNL     1     -14.957   6.513   3.933  1.00  0.00     0.110 C 
BRANCH  14  15
ATOM     15  C   UNL     1     -13.585   6.084   3.489  1.00  0.00     0.010 C 
ATOM     16  C   UNL     1     -13.033   7.175   2.598  1.00  0.00     0.005 C 
ENDBRANCH  14  15
ENDBRANCH  12  14
ENDBRANCH   1  12
BRANCH   6  17
ATOM     17  N   UNL     1     -21.655   4.019   1.481  1.00  0.00    -0.140 NA
BRANCH  17  18
ATOM     18  C   UNL     1     -22.998   4.430   1.250  1.00  0.00     0.436 C 
ATOM     19  O   UNL     1     -23.260   4.865   0.097  1.00  0.00    -0.222 OA
BRANCH  18  20
ATOM     20  O   UNL     1     -23.996   4.381   2.194  1.00  0.00    -0.451 OA
ATOM     21  C   UNL     1     -23.980   3.437   3.268  1.00  0.00     0.284 C 
ENDBRANCH  18  20
ENDBRANCH  17  18
ENDBRANCH   6  17
TORSDOF 6
