
     RDKit          3D

 19 20  0  0  0  0  0  0  0  0999 V2000
    6.2123   -1.4986    0.7041 C   0  0  0  0  0  0  0  0  0  0  0  0
    5.9200   -0.1362    1.2937 C   0  0  0  0  0  0  0  0  0  0  0  0
    4.4289    0.0570    1.2696 C   0  0  0  0  0  0  0  0  0  0  0  0
    3.8958   -0.0444   -0.4761 S   0  0  0  0  0  4  0  0  0  0  0  0
    4.3965    1.2928   -1.0530 O   0  0  0  0  0  0  0  0  0  0  0  0
    2.1286    0.1994   -0.3537 C   0  0  0  0  0  0  0  0  0  0  0  0
    1.5806    1.4498   -0.3851 C   0  0  0  0  0  0  0  0  0  0  0  0
    0.2010    1.6478   -0.2900 C   0  0  0  0  0  0  0  0  0  0  0  0
   -0.6422    0.5526   -0.1600 C   0  0  0  0  0  0  0  0  0  0  0  0
   -1.9818    0.4704   -0.0514 N   0  0  0  0  0  0  0  0  0  0  0  0
   -2.2492   -0.8611    0.0480 C   0  0  0  0  0  0  0  0  0  0  0  0
   -3.4629   -1.2873    0.1672 N   0  0  0  0  0  0  0  0  0  0  0  0
   -4.5939   -0.4239    0.2038 C   0  0  0  0  0  0  0  0  0  0  0  0
   -5.7223   -0.9807    0.2825 O   0  0  0  0  0  0  0  0  0  0  0  0
   -4.5229    0.9478    0.1591 O   0  0  0  0  0  0  0  0  0  0  0  0
   -5.6921    1.7714    0.1990 C   0  0  0  0  0  0  0  0  0  0  0  0
   -1.1057   -1.5646    0.0010 N   0  0  0  0  0  0  0  0  0  0  0  0
   -0.0818   -0.7011   -0.1293 C   0  0  0  0  0  0  0  0  0  0  0  0
    1.2912   -0.8912   -0.2244 C   0  0  0  0  0  0  0  0  0  0  0  0
  1  2  1  0
  2  3  1  0
  4  3  1  1
  4  5  2  0
  4  6  1  0
  6  7  2  0
  7  8  1  0
  8  9  2  0
  9 10  1  0
 10 11  1  0
 11 12  2  0
 12 13  1  0
 13 14  2  0
 13 15  1  0
 15 16  1  0
 11 17  1  0
 17 18  1  0
 18 19  2  0
 19  6  1  0
 18  9  1  0
M  END
>  <zinc_id>  (1) 
ZINC000000000017

>  <smiles>  (1) 
CCC[S@](=O)c1ccc2[nH]/c(=N\C(=O)OC)[nH]c2c1

$$$$
