MODEL 1
REMARK VINA RESULT:      -5.8      0.000      0.000
REMARK SMILES CCC[S@](=O)c1ccc2[nH]/c(=N\C(=O)OC)[nH]c2c1
REMARK SMILES IDX 6 1 7 2 8 3 9 4 10 5 11 6 17 7 18 8 19 9 4 12 5 13 3 14 2 15
REMARK SMILES IDX 1 16 12 17 13 18 14 19 15 20 16 21
REMARK H PARENT 10 10 17 11
ROOT
ATOM      1  C   UNL     1     -17.197   7.597   2.018  1.00  0.00     0.041 A 
ATOM      2  C   UNL     1     -17.958   8.329   1.152  1.00  0.00     0.020 A 
ATOM      3  C   UNL     1     -19.202   7.875   0.704  1.00  0.00     0.029 A 
ATOM      4  C   UNL     1     -19.684   6.650   1.145  1.00  0.00     0.065 A 
ATOM      5  N   UNL     1     -20.829   5.994   0.873  1.00  0.00    -0.324 N 
ATOM      6  C   UNL     1     -20.757   4.840   1.590  1.00  0.00     0.211 A 
ATOM      7  N   UNL     1     -19.604   4.796   2.278  1.00  0.00    -0.324 N 
ATOM      8  C   UNL     1     -18.912   5.921   2.017  1.00  0.00     0.066 A 
ATOM      9  C   UNL     1     -17.677   6.379   2.458  1.00  0.00     0.046 A 
ATOM     10  H   UNL     1     -21.559   6.288   0.281  1.00  0.00     0.170 HD
ATOM     11  H   UNL     1     -19.315   4.067   2.873  1.00  0.00     0.170 HD
ENDROOT
BRANCH   1  12
ATOM     12  S   UNL     1     -15.608   8.187   2.586  1.00  0.00     0.053 S 
ATOM     13  O   UNL     1     -15.921   8.749   3.984  1.00  0.00    -0.254 OA
BRANCH  12  14
ATOM     14  C   UNL     1     -14.726   6.633   2.974  1.00  0.00     0.110 C 
BRANCH  14  15
ATOM     15  C   UNL     1     -13.275   6.978   3.161  1.00  0.00     0.010 C 
ATOM     16  C   UNL     1     -12.896   7.959   2.072  1.00  0.00     0.005 C 
ENDBRANCH  14  15
ENDBRANCH  12  14
ENDBRANCH   1  12
BRANCH   6  17
ATOM     17  N   UNL     1     -21.714   3.973   1.549  1.00  0.00    -0.140 NA
BRANCH  17  18
ATOM     18  C   UNL     1     -23.071   4.318   1.297  1.00  0.00     0.436 C 
ATOM     19  O   UNL     1     -23.385   4.517   0.093  1.00  0.00    -0.222 OA
BRANCH  18  20
ATOM     20  O   UNL     1     -24.032   4.444   2.272  1.00  0.00    -0.451 OA
ATOM     21  C   UNL     1     -24.155   3.505   3.344  1.00  0.00     0.284 C 
ENDBRANCH  18  20
ENDBRANCH  17  18
ENDBRANCH   6  17
TORSDOF 6
ENDMDL
MODEL 2
REMARK VINA RESULT:      -5.6      1.481      2.281
REMARK SMILES CCC[S@](=O)c1ccc2[nH]/c(=N\C(=O)OC)[nH]c2c1
REMARK SMILES IDX 6 1 7 2 8 3 9 4 10 5 11 6 17 7 18 8 19 9 4 12 5 13 3 14 2 15
REMARK SMILES IDX 1 16 12 17 13 18 14 19 15 20 16 21
REMARK H PARENT 10 10 17 11
ROOT
ATOM      1  C   UNL     1     -16.984   6.953   2.405  1.00  0.00     0.041 A 
ATOM      2  C   UNL     1     -16.859   5.741   3.023  1.00  0.00     0.020 A 
ATOM      3  C   UNL     1     -17.876   4.785   2.972  1.00  0.00     0.029 A 
ATOM      4  C   UNL     1     -19.046   5.063   2.278  1.00  0.00     0.065 A 
ATOM      5  N   UNL     1     -20.158   4.329   2.079  1.00  0.00    -0.324 N 
ATOM      6  C   UNL     1     -20.972   5.115   1.323  1.00  0.00     0.211 A 
ATOM      7  N   UNL     1     -20.373   6.291   1.071  1.00  0.00    -0.324 N 
ATOM      8  C   UNL     1     -19.162   6.284   1.659  1.00  0.00     0.066 A 
ATOM      9  C   UNL     1     -18.147   7.230   1.714  1.00  0.00     0.046 A 
ATOM     10  H   UNL     1     -20.341   3.420   2.409  1.00  0.00     0.170 HD
ATOM     11  H   UNL     1     -20.754   7.031   0.546  1.00  0.00     0.170 HD
ENDROOT
BRANCH   1  12
ATOM     12  S   UNL     1     -15.677   8.171   2.475  1.00  0.00     0.053 S 
ATOM     13  O   UNL     1     -15.912   8.861   3.831  1.00  0.00    -0.254 OA
BRANCH  12  14
ATOM     14  C   UNL     1     -14.200   7.144   2.807  1.00  0.00     0.110 C 
BRANCH  14  15
ATOM     15  C   UNL     1     -12.993   8.008   2.568  1.00  0.00     0.010 C 
ATOM     16  C   UNL     1     -13.061   8.499   1.137  1.00  0.00     0.005 C 
ENDBRANCH  14  15
ENDBRANCH  12  14
ENDBRANCH   1  12
BRANCH   6  17
ATOM     17  N   UNL     1     -22.138   4.699   0.951  1.00  0.00    -0.140 NA
BRANCH  17  18
ATOM     18  C   UNL     1     -22.889   5.309  -0.093  1.00  0.00     0.436 C 
ATOM     19  O   UNL     1     -22.733   6.551  -0.243  1.00  0.00    -0.222 OA
BRANCH  18  20
ATOM     20  O   UNL     1     -23.752   4.634  -0.922  1.00  0.00    -0.451 OA
ATOM     21  C   UNL     1     -24.252   5.211  -2.131  1.00  0.00     0.284 C 
ENDBRANCH  18  20
ENDBRANCH  17  18
ENDBRANCH   6  17
TORSDOF 6
ENDMDL
MODEL 3
REMARK VINA RESULT:      -4.8      4.289      8.072
REMARK SMILES CCC[S@](=O)c1ccc2[nH]/c(=N\C(=O)OC)[nH]c2c1
REMARK SMILES IDX 6 1 7 2 8 3 9 4 10 5 11 6 17 7 18 8 19 9 4 12 5 13 3 14 2 15
REMARK SMILES IDX 1 16 12 17 13 18 14 19 15 20 16 21
REMARK H PARENT 10 10 17 11
ROOT
ATOM      1  C   UNL     1     -17.051   6.004   3.129  1.00  0.00     0.041 A 
ATOM      2  C   UNL     1     -17.439   6.614   1.970  1.00  0.00     0.020 A 
ATOM      3  C   UNL     1     -16.616   7.533   1.314  1.00  0.00     0.029 A 
ATOM      4  C   UNL     1     -15.372   7.841   1.846  1.00  0.00     0.065 A 
ATOM      5  N   UNL     1     -14.404   8.675   1.420  1.00  0.00    -0.324 N 
ATOM      6  C   UNL     1     -13.409   8.567   2.343  1.00  0.00     0.211 A 
ATOM      7  N   UNL     1     -13.762   7.693   3.300  1.00  0.00    -0.324 N 
ATOM      8  C   UNL     1     -14.989   7.222   3.011  1.00  0.00     0.066 A 
ATOM      9  C   UNL     1     -15.813   6.309   3.658  1.00  0.00     0.046 A 
ATOM     10  H   UNL     1     -14.415   9.242   0.615  1.00  0.00     0.170 HD
ATOM     11  H   UNL     1     -13.216   7.440   4.079  1.00  0.00     0.170 HD
ENDROOT
BRANCH   1  12
ATOM     12  S   UNL     1     -18.112   4.829   3.960  1.00  0.00     0.053 S 
ATOM     13  O   UNL     1     -19.253   5.708   4.503  1.00  0.00    -0.254 OA
BRANCH  12  14
ATOM     14  C   UNL     1     -18.912   3.964   2.562  1.00  0.00     0.110 C 
BRANCH  14  15
ATOM     15  C   UNL     1     -17.905   3.002   1.996  1.00  0.00     0.010 C 
ATOM     16  C   UNL     1     -18.525   1.622   2.026  1.00  0.00     0.005 C 
ENDBRANCH  14  15
ENDBRANCH  12  14
ENDBRANCH   1  12
BRANCH   6  17
ATOM     17  N   UNL     1     -12.319   9.251   2.226  1.00  0.00    -0.140 NA
BRANCH  17  18
ATOM     18  C   UNL     1     -11.610   9.388   1.000  1.00  0.00     0.436 C 
ATOM     19  O   UNL     1     -10.585  10.121   1.024  1.00  0.00    -0.222 OA
BRANCH  18  20
ATOM     20  O   UNL     1     -11.975   8.781  -0.178  1.00  0.00    -0.451 OA
ATOM     21  C   UNL     1     -11.181   7.757  -0.783  1.00  0.00     0.284 C 
ENDBRANCH  18  20
ENDBRANCH  17  18
ENDBRANCH   6  17
TORSDOF 6
ENDMDL
MODEL 4
REMARK VINA RESULT:      -4.7      1.829      2.029
REMARK SMILES CCC[S@](=O)c1ccc2[nH]/c(=N\C(=O)OC)[nH]c2c1
REMARK SMILES IDX 6 1 7 2 8 3 9 4 10 5 11 6 17 7 18 8 19 9 4 12 5 13 3 14 2 15
REMARK SMILES IDX 1 16 12 17 13 18 14 19 15 20 16 21
REMARK H PARENT 10 10 17 11
ROOT
ATOM      1  C   UNL     1     -16.978   7.404   2.292  1.00  0.00     0.041 A 
ATOM      2  C   UNL     1     -18.006   7.973   1.594  1.00  0.00     0.020 A 
ATOM      3  C   UNL     1     -19.183   7.272   1.320  1.00  0.00     0.029 A 
ATOM      4  C   UNL     1     -19.321   5.964   1.764  1.00  0.00     0.065 A 
ATOM      5  N   UNL     1     -20.333   5.084   1.637  1.00  0.00    -0.324 N 
ATOM      6  C   UNL     1     -19.907   3.958   2.272  1.00  0.00     0.211 A 
ATOM      7  N   UNL     1     -18.674   4.149   2.770  1.00  0.00    -0.324 N 
ATOM      8  C   UNL     1     -18.284   5.400   2.466  1.00  0.00     0.066 A 
ATOM      9  C   UNL     1     -17.116   6.103   2.734  1.00  0.00     0.046 A 
ATOM     10  H   UNL     1     -21.195   5.226   1.182  1.00  0.00     0.170 HD
ATOM     11  H   UNL     1     -18.147   3.486   3.273  1.00  0.00     0.170 HD
ENDROOT
BRANCH   1  12
ATOM     12  S   UNL     1     -15.476   8.310   2.637  1.00  0.00     0.053 S 
ATOM     13  O   UNL     1     -15.787   9.010   3.972  1.00  0.00    -0.254 OA
BRANCH  12  14
ATOM     14  C   UNL     1     -14.325   6.984   3.147  1.00  0.00     0.110 C 
BRANCH  14  15
ATOM     15  C   UNL     1     -13.032   7.208   2.413  1.00  0.00     0.010 C 
ATOM     16  C   UNL     1     -13.251   8.348   1.443  1.00  0.00     0.005 C 
ENDBRANCH  14  15
ENDBRANCH  12  14
ENDBRANCH   1  12
BRANCH   6  17
ATOM     17  N   UNL     1     -20.656   2.907   2.333  1.00  0.00    -0.140 NA
BRANCH  17  18
ATOM     18  C   UNL     1     -21.454   2.580   3.466  1.00  0.00     0.436 C 
ATOM     19  O   UNL     1     -21.686   3.516   4.277  1.00  0.00    -0.222 OA
BRANCH  18  20
ATOM     20  O   UNL     1     -21.969   1.330   3.715  1.00  0.00    -0.451 OA
ATOM     21  C   UNL     1     -21.703   0.214   2.861  1.00  0.00     0.284 C 
ENDBRANCH  18  20
ENDBRANCH  17  18
ENDBRANCH   6  17
TORSDOF 6
ENDMDL
MODEL 5
REMARK VINA RESULT:      -4.7      4.173      6.631
REMARK SMILES CCC[S@](=O)c1ccc2[nH]/c(=N\C(=O)OC)[nH]c2c1
REMARK SMILES IDX 6 1 7 2 8 3 9 4 10 5 11 6 17 7 18 8 19 9 4 12 5 13 3 14 2 15
REMARK SMILES IDX 1 16 12 17 13 18 14 19 15 20 16 21
REMARK H PARENT 10 10 17 11
ROOT
ATOM      1  C   UNL     1     -11.196   7.838   0.760  1.00  0.00     0.041 A 
ATOM      2  C   UNL     1     -11.104   7.619   2.105  1.00  0.00     0.020 A 
ATOM      3  C   UNL     1     -12.228   7.668   2.933  1.00  0.00     0.029 A 
ATOM      4  C   UNL     1     -13.473   7.943   2.385  1.00  0.00     0.065 A 
ATOM      5  N   UNL     1     -14.692   8.045   2.950  1.00  0.00    -0.324 N 
ATOM      6  C   UNL     1     -15.538   8.332   1.923  1.00  0.00     0.211 A 
ATOM      7  N   UNL     1     -14.854   8.401   0.769  1.00  0.00    -0.324 N 
ATOM      8  C   UNL     1     -13.556   8.161   1.031  1.00  0.00     0.066 A 
ATOM      9  C   UNL     1     -12.434   8.111   0.213  1.00  0.00     0.046 A 
ATOM     10  H   UNL     1     -14.919   7.936   3.902  1.00  0.00     0.170 HD
ATOM     11  H   UNL     1     -15.237   8.595  -0.117  1.00  0.00     0.170 HD
ENDROOT
BRANCH   1  12
ATOM     12  S   UNL     1      -9.751   7.773  -0.292  1.00  0.00     0.053 S 
ATOM     13  O   UNL     1     -10.097   6.659  -1.297  1.00  0.00    -0.254 OA
BRANCH  12  14
ATOM     14  C   UNL     1      -9.932   9.286  -1.303  1.00  0.00     0.110 C 
BRANCH  14  15
ATOM     15  C   UNL     1      -8.704  10.124  -1.078  1.00  0.00     0.010 C 
ATOM     16  C   UNL     1      -7.867   9.430  -0.025  1.00  0.00     0.005 C 
ENDBRANCH  14  15
ENDBRANCH  12  14
ENDBRANCH   1  12
BRANCH   6  17
ATOM     17  N   UNL     1     -16.802   8.496   2.132  1.00  0.00    -0.140 NA
BRANCH  17  18
ATOM     18  C   UNL     1     -17.689   7.426   2.438  1.00  0.00     0.436 C 
ATOM     19  O   UNL     1     -17.413   6.745   3.463  1.00  0.00    -0.222 OA
BRANCH  18  20
ATOM     20  O   UNL     1     -18.800   7.103   1.696  1.00  0.00    -0.451 OA
ATOM     21  C   UNL     1     -19.297   7.958   0.662  1.00  0.00     0.284 C 
ENDBRANCH  18  20
ENDBRANCH  17  18
ENDBRANCH   6  17
TORSDOF 6
ENDMDL
MODEL 6
REMARK VINA RESULT:      -4.7      3.889      7.664
REMARK SMILES CCC[S@](=O)c1ccc2[nH]/c(=N\C(=O)OC)[nH]c2c1
REMARK SMILES IDX 6 1 7 2 8 3 9 4 10 5 11 6 17 7 18 8 19 9 4 12 5 13 3 14 2 15
REMARK SMILES IDX 1 16 12 17 13 18 14 19 15 20 16 21
REMARK H PARENT 10 10 17 11
ROOT
ATOM      1  C   UNL     1     -18.286   5.575   2.462  1.00  0.00     0.041 A 
ATOM      2  C   UNL     1     -18.849   6.802   2.250  1.00  0.00     0.020 A 
ATOM      3  C   UNL     1     -18.066   7.942   2.045  1.00  0.00     0.029 A 
ATOM      4  C   UNL     1     -16.683   7.835   2.055  1.00  0.00     0.065 A 
ATOM      5  N   UNL     1     -15.718   8.760   1.887  1.00  0.00    -0.324 N 
ATOM      6  C   UNL     1     -14.546   8.076   1.999  1.00  0.00     0.211 A 
ATOM      7  N   UNL     1     -14.792   6.776   2.229  1.00  0.00    -0.324 N 
ATOM      8  C   UNL     1     -16.125   6.598   2.268  1.00  0.00     0.066 A 
ATOM      9  C   UNL     1     -16.909   5.468   2.471  1.00  0.00     0.046 A 
ATOM     10  H   UNL     1     -15.836   9.723   1.719  1.00  0.00     0.170 HD
ATOM     11  H   UNL     1     -14.113   6.073   2.348  1.00  0.00     0.170 HD
ENDROOT
BRANCH   1  12
ATOM     12  S   UNL     1     -19.295   4.123   2.722  1.00  0.00     0.053 S 
ATOM     13  O   UNL     1     -20.558   4.419   1.894  1.00  0.00    -0.254 OA
BRANCH  12  14
ATOM     14  C   UNL     1     -18.444   2.864   1.705  1.00  0.00     0.110 C 
BRANCH  14  15
ATOM     15  C   UNL     1     -18.023   1.754   2.627  1.00  0.00     0.010 C 
ATOM     16  C   UNL     1     -16.529   1.573   2.470  1.00  0.00     0.005 C 
ENDBRANCH  14  15
ENDBRANCH  12  14
ENDBRANCH   1  12
BRANCH   6  17
ATOM     17  N   UNL     1     -13.411   8.683   1.886  1.00  0.00    -0.140 NA
BRANCH  17  18
ATOM     18  C   UNL     1     -12.374   8.244   1.016  1.00  0.00     0.436 C 
ATOM     19  O   UNL     1     -11.752   7.204   1.365  1.00  0.00    -0.222 OA
BRANCH  18  20
ATOM     20  O   UNL     1     -12.023   8.877  -0.152  1.00  0.00    -0.451 OA
ATOM     21  C   UNL     1     -10.663   8.974  -0.585  1.00  0.00     0.284 C 
ENDBRANCH  18  20
ENDBRANCH  17  18
ENDBRANCH   6  17
TORSDOF 6
ENDMDL
MODEL 7
REMARK VINA RESULT:      -4.6      5.021      7.308
REMARK SMILES CCC[S@](=O)c1ccc2[nH]/c(=N\C(=O)OC)[nH]c2c1
REMARK SMILES IDX 6 1 7 2 8 3 9 4 10 5 11 6 17 7 18 8 19 9 4 12 5 13 3 14 2 15
REMARK SMILES IDX 1 16 12 17 13 18 14 19 15 20 16 21
REMARK H PARENT 10 10 17 11
ROOT
ATOM      1  C   UNL     1     -16.030   5.928   2.636  1.00  0.00     0.041 A 
ATOM      2  C   UNL     1     -14.711   6.095   2.952  1.00  0.00     0.020 A 
ATOM      3  C   UNL     1     -13.818   5.020   2.962  1.00  0.00     0.029 A 
ATOM      4  C   UNL     1     -14.273   3.748   2.643  1.00  0.00     0.065 A 
ATOM      5  N   UNL     1     -13.632   2.565   2.578  1.00  0.00    -0.324 N 
ATOM      6  C   UNL     1     -14.585   1.664   2.215  1.00  0.00     0.211 A 
ATOM      7  N   UNL     1     -15.768   2.280   2.063  1.00  0.00    -0.324 N 
ATOM      8  C   UNL     1     -15.600   3.590   2.326  1.00  0.00     0.066 A 
ATOM      9  C   UNL     1     -16.482   4.663   2.318  1.00  0.00     0.046 A 
ATOM     10  H   UNL     1     -12.679   2.391   2.756  1.00  0.00     0.170 HD
ATOM     11  H   UNL     1     -16.614   1.849   1.804  1.00  0.00     0.170 HD
ENDROOT
BRANCH   1  12
ATOM     12  S   UNL     1     -17.164   7.310   2.627  1.00  0.00     0.053 S 
ATOM     13  O   UNL     1     -16.332   8.452   3.238  1.00  0.00    -0.254 OA
BRANCH  12  14
ATOM     14  C   UNL     1     -17.217   7.764   0.857  1.00  0.00     0.110 C 
BRANCH  14  15
ATOM     15  C   UNL     1     -18.665   7.841   0.458  1.00  0.00     0.010 C 
ATOM     16  C   UNL     1     -19.448   6.970   1.417  1.00  0.00     0.005 C 
ENDBRANCH  14  15
ENDBRANCH  12  14
ENDBRANCH   1  12
BRANCH   6  17
ATOM     17  N   UNL     1     -14.293   0.414   2.063  1.00  0.00    -0.140 NA
BRANCH  17  18
ATOM     18  C   UNL     1     -12.993  -0.048   1.713  1.00  0.00     0.436 C 
ATOM     19  O   UNL     1     -12.577   0.267   0.565  1.00  0.00    -0.222 OA
BRANCH  18  20
ATOM     20  O   UNL     1     -12.190  -0.800   2.536  1.00  0.00    -0.451 OA
ATOM     21  C   UNL     1     -12.045  -0.508   3.929  1.00  0.00     0.284 C 
ENDBRANCH  18  20
ENDBRANCH  17  18
ENDBRANCH   6  17
TORSDOF 6
ENDMDL
MODEL 8
REMARK VINA RESULT:      -4.5      5.625      8.753
REMARK SMILES CCC[S@](=O)c1ccc2[nH]/c(=N\C(=O)OC)[nH]c2c1
REMARK SMILES IDX 6 1 7 2 8 3 9 4 10 5 11 6 17 7 18 8 19 9 4 12 5 13 3 14 2 15
REMARK SMILES IDX 1 16 12 17 13 18 14 19 15 20 16 21
REMARK H PARENT 10 10 17 11
ROOT
ATOM      1  C   UNL     1     -14.554   6.534   3.881  1.00  0.00     0.041 A 
ATOM      2  C   UNL     1     -15.188   7.721   3.641  1.00  0.00     0.020 A 
ATOM      3  C   UNL     1     -14.739   8.604   2.655  1.00  0.00     0.029 A 
ATOM      4  C   UNL     1     -13.624   8.277   1.897  1.00  0.00     0.065 A 
ATOM      5  N   UNL     1     -12.998   8.938   0.904  1.00  0.00    -0.324 N 
ATOM      6  C   UNL     1     -11.964   8.134   0.537  1.00  0.00     0.211 A 
ATOM      7  N   UNL     1     -11.962   7.017   1.284  1.00  0.00    -0.324 N 
ATOM      8  C   UNL     1     -12.994   7.082   2.145  1.00  0.00     0.066 A 
ATOM      9  C   UNL     1     -13.445   6.208   3.126  1.00  0.00     0.046 A 
ATOM     10  H   UNL     1     -13.238   9.816   0.527  1.00  0.00     0.170 HD
ATOM     11  H   UNL     1     -11.316   6.278   1.213  1.00  0.00     0.170 HD
ENDROOT
BRANCH   1  12
ATOM     12  S   UNL     1     -15.136   5.410   5.144  1.00  0.00     0.053 S 
ATOM     13  O   UNL     1     -15.452   6.344   6.327  1.00  0.00    -0.254 OA
BRANCH  12  14
ATOM     14  C   UNL     1     -16.802   4.965   4.538  1.00  0.00     0.110 C 
BRANCH  14  15
ATOM     15  C   UNL     1     -16.622   4.204   3.253  1.00  0.00     0.010 C 
ATOM     16  C   UNL     1     -17.450   4.897   2.193  1.00  0.00     0.005 C 
ENDBRANCH  14  15
ENDBRANCH  12  14
ENDBRANCH   1  12
BRANCH   6  17
ATOM     17  N   UNL     1     -11.154   8.483  -0.407  1.00  0.00    -0.140 NA
BRANCH  17  18
ATOM     18  C   UNL     1     -10.584   7.561  -1.329  1.00  0.00     0.436 C 
ATOM     19  O   UNL     1     -11.394   6.871  -2.005  1.00  0.00    -0.222 OA
BRANCH  18  20
ATOM     20  O   UNL     1      -9.233   7.386  -1.516  1.00  0.00    -0.451 OA
ATOM     21  C   UNL     1      -8.301   8.459  -1.361  1.00  0.00     0.284 C 
ENDBRANCH  18  20
ENDBRANCH  17  18
ENDBRANCH   6  17
TORSDOF 6
ENDMDL
MODEL 9
REMARK VINA RESULT:      -4.5      5.336      7.287
REMARK SMILES CCC[S@](=O)c1ccc2[nH]/c(=N\C(=O)OC)[nH]c2c1
REMARK SMILES IDX 6 1 7 2 8 3 9 4 10 5 11 6 17 7 18 8 19 9 4 12 5 13 3 14 2 15
REMARK SMILES IDX 1 16 12 17 13 18 14 19 15 20 16 21
REMARK H PARENT 10 10 17 11
ROOT
ATOM      1  C   UNL     1     -14.793   1.352   2.543  1.00  0.00     0.041 A 
ATOM      2  C   UNL     1     -16.101   0.960   2.585  1.00  0.00     0.020 A 
ATOM      3  C   UNL     1     -17.146   1.874   2.427  1.00  0.00     0.029 A 
ATOM      4  C   UNL     1     -16.858   3.216   2.222  1.00  0.00     0.065 A 
ATOM      5  N   UNL     1     -17.663   4.282   2.044  1.00  0.00    -0.324 N 
ATOM      6  C   UNL     1     -16.822   5.341   1.891  1.00  0.00     0.211 A 
ATOM      7  N   UNL     1     -15.545   4.931   1.973  1.00  0.00    -0.324 N 
ATOM      8  C   UNL     1     -15.540   3.601   2.180  1.00  0.00     0.066 A 
ATOM      9  C   UNL     1     -14.506   2.687   2.338  1.00  0.00     0.046 A 
ATOM     10  H   UNL     1     -18.647   4.291   2.029  1.00  0.00     0.170 HD
ATOM     11  H   UNL     1     -14.749   5.506   1.894  1.00  0.00     0.170 HD
ENDROOT
BRANCH   1  12
ATOM     12  S   UNL     1     -13.463   0.174   2.745  1.00  0.00     0.053 S 
ATOM     13  O   UNL     1     -14.202  -1.168   2.900  1.00  0.00    -0.254 OA
BRANCH  12  14
ATOM     14  C   UNL     1     -12.782   0.055   1.053  1.00  0.00     0.110 C 
BRANCH  14  15
ATOM     15  C   UNL     1     -11.540  -0.790   1.129  1.00  0.00     0.010 C 
ATOM     16  C   UNL     1     -11.832  -2.093   0.417  1.00  0.00     0.005 C 
ENDBRANCH  14  15
ENDBRANCH  12  14
ENDBRANCH   1  12
BRANCH   6  17
ATOM     17  N   UNL     1     -17.284   6.532   1.698  1.00  0.00    -0.140 NA
BRANCH  17  18
ATOM     18  C   UNL     1     -16.559   7.713   2.023  1.00  0.00     0.436 C 
ATOM     19  O   UNL     1     -16.926   8.329   3.059  1.00  0.00    -0.222 OA
BRANCH  18  20
ATOM     20  O   UNL     1     -15.509   8.205   1.284  1.00  0.00    -0.451 OA
ATOM     21  C   UNL     1     -14.186   8.306   1.818  1.00  0.00     0.284 C 
ENDBRANCH  18  20
ENDBRANCH  17  18
ENDBRANCH   6  17
TORSDOF 6
ENDMDL
