MODEL 1
REMARK VINA RESULT:      -5.1      0.000      0.000
REMARK SMILES CC(=O)Oc1ccccc1C(=O)O
REMARK SMILES IDX 5 1 6 2 7 3 8 4 9 5 10 6 4 7 2 8 1 9 3 10 11 11 12 12 13 13
REMARK H PARENT 13 14
ROOT
ATOM      1  C   UNL     1     -26.793   5.514  -4.191  1.00  0.00     0.145 A 
ATOM      2  C   UNL     1     -27.956   5.063  -4.796  1.00  0.00     0.048 A 
ATOM      3  C   UNL     1     -28.359   3.752  -4.530  1.00  0.00     0.004 A 
ATOM      4  C   UNL     1     -27.651   2.928  -3.710  1.00  0.00     0.001 A 
ATOM      5  C   UNL     1     -26.488   3.416  -3.122  1.00  0.00     0.019 A 
ATOM      6  C   UNL     1     -26.049   4.705  -3.355  1.00  0.00     0.102 A 
ENDROOT
BRANCH   1   7
ATOM      7  O   UNL     1     -26.320   6.804  -4.402  1.00  0.00    -0.426 OA
BRANCH   7   8
ATOM      8  C   UNL     1     -26.878   7.895  -3.753  1.00  0.00     0.308 C 
ATOM      9  C   UNL     1     -28.274   8.356  -3.990  1.00  0.00     0.139 C 
ATOM     10  O   UNL     1     -26.108   8.488  -2.928  1.00  0.00    -0.252 OA
ENDBRANCH   7   8
ENDBRANCH   1   7
BRANCH   6  11
ATOM     11  C   UNL     1     -24.825   5.182  -2.719  1.00  0.00     0.339 C 
ATOM     12  O   UNL     1     -23.713   4.718  -3.075  1.00  0.00    -0.246 OA
BRANCH  11  13
ATOM     13  O   UNL     1     -24.874   6.130  -1.736  1.00  0.00    -0.478 OA
ATOM     14  H   UNL     1     -24.213   6.791  -1.690  1.00  0.00     0.297 HD
ENDBRANCH  11  13
ENDBRANCH   6  11
TORSDOF 4
ENDMDL
MODEL 2
REMARK VINA RESULT:      -4.9      1.825      3.821
REMARK SMILES CC(=O)Oc1ccccc1C(=O)O
REMARK SMILES IDX 5 1 6 2 7 3 8 4 9 5 10 6 4 7 2 8 1 9 3 10 11 11 12 12 13 13
REMARK H PARENT 13 14
ROOT
ATOM      1  C   UNL     1     -26.167   4.772  -3.962  1.00  0.00     0.145 A 
ATOM      2  C   UNL     1     -27.279   5.223  -4.655  1.00  0.00     0.048 A 
ATOM      3  C   UNL     1     -27.630   6.567  -4.513  1.00  0.00     0.004 A 
ATOM      4  C   UNL     1     -26.921   7.424  -3.728  1.00  0.00     0.001 A 
ATOM      5  C   UNL     1     -25.810   6.934  -3.048  1.00  0.00     0.019 A 
ATOM      6  C   UNL     1     -25.424   5.612  -3.157  1.00  0.00     0.102 A 
ENDROOT
BRANCH   1   7
ATOM      7  O   UNL     1     -25.748   3.449  -4.046  1.00  0.00    -0.426 OA
BRANCH   7   8
ATOM      8  C   UNL     1     -26.638   2.424  -4.326  1.00  0.00     0.308 C 
ATOM      9  C   UNL     1     -26.762   1.798  -5.672  1.00  0.00     0.139 C 
ATOM     10  O   UNL     1     -27.355   2.043  -3.342  1.00  0.00    -0.252 OA
ENDBRANCH   7   8
ENDBRANCH   1   7
BRANCH   6  11
ATOM     11  C   UNL     1     -24.253   5.135  -2.428  1.00  0.00     0.339 C 
ATOM     12  O   UNL     1     -24.198   5.261  -1.179  1.00  0.00    -0.246 OA
BRANCH  11  13
ATOM     13  O   UNL     1     -23.210   4.553  -3.091  1.00  0.00    -0.478 OA
ATOM     14  H   UNL     1     -22.627   5.079  -3.602  1.00  0.00     0.297 HD
ENDBRANCH  11  13
ENDBRANCH   6  11
TORSDOF 4
ENDMDL
MODEL 3
REMARK VINA RESULT:      -4.7      9.851     11.799
REMARK SMILES CC(=O)Oc1ccccc1C(=O)O
REMARK SMILES IDX 5 1 6 2 7 3 8 4 9 5 10 6 4 7 2 8 1 9 3 10 11 11 12 12 13 13
REMARK H PARENT 13 14
ROOT
ATOM      1  C   UNL     1     -17.066   6.490   2.014  1.00  0.00     0.145 A 
ATOM      2  C   UNL     1     -18.265   5.846   2.280  1.00  0.00     0.048 A 
ATOM      3  C   UNL     1     -19.422   6.362   1.692  1.00  0.00     0.004 A 
ATOM      4  C   UNL     1     -19.400   7.456   0.883  1.00  0.00     0.001 A 
ATOM      5  C   UNL     1     -18.177   8.076   0.639  1.00  0.00     0.019 A 
ATOM      6  C   UNL     1     -17.006   7.603   1.198  1.00  0.00     0.102 A 
ENDROOT
BRANCH   1   7
ATOM      7  O   UNL     1     -15.868   6.044   2.558  1.00  0.00    -0.426 OA
BRANCH   7   8
ATOM      8  C   UNL     1     -15.645   6.055   3.927  1.00  0.00     0.308 C 
ATOM      9  C   UNL     1     -15.610   4.818   4.756  1.00  0.00     0.139 C 
ATOM     10  O   UNL     1     -15.468   7.209   4.439  1.00  0.00    -0.252 OA
ENDBRANCH   7   8
ENDBRANCH   1   7
BRANCH   6  11
ATOM     11  C   UNL     1     -15.743   8.278   0.919  1.00  0.00     0.339 C 
ATOM     12  O   UNL     1     -15.318   8.348  -0.261  1.00  0.00    -0.246 OA
BRANCH  11  13
ATOM     13  O   UNL     1     -15.014   8.837   1.930  1.00  0.00    -0.478 OA
ATOM     14  H   UNL     1     -15.405   8.975   2.770  1.00  0.00     0.297 HD
ENDBRANCH  11  13
ENDBRANCH   6  11
TORSDOF 4
ENDMDL
MODEL 4
REMARK VINA RESULT:      -4.6      2.133      5.040
REMARK SMILES CC(=O)Oc1ccccc1C(=O)O
REMARK SMILES IDX 5 1 6 2 7 3 8 4 9 5 10 6 4 7 2 8 1 9 3 10 11 11 12 12 13 13
REMARK H PARENT 13 14
ROOT
ATOM      1  C   UNL     1     -27.488   7.615  -4.140  1.00  0.00     0.145 A 
ATOM      2  C   UNL     1     -27.081   8.369  -3.050  1.00  0.00     0.048 A 
ATOM      3  C   UNL     1     -27.932   9.386  -2.611  1.00  0.00     0.004 A 
ATOM      4  C   UNL     1     -29.123   9.647  -3.216  1.00  0.00     0.001 A 
ATOM      5  C   UNL     1     -29.498   8.869  -4.307  1.00  0.00     0.019 A 
ATOM      6  C   UNL     1     -28.690   7.851  -4.778  1.00  0.00     0.102 A 
ENDROOT
BRANCH   1   7
ATOM      7  O   UNL     1     -26.703   6.584  -4.642  1.00  0.00    -0.426 OA
BRANCH   7   8
ATOM      8  C   UNL     1     -26.470   5.428  -3.912  1.00  0.00     0.308 C 
ATOM      9  C   UNL     1     -25.178   5.146  -3.226  1.00  0.00     0.139 C 
ATOM     10  O   UNL     1     -27.447   4.611  -3.862  1.00  0.00    -0.252 OA
ENDBRANCH   7   8
ENDBRANCH   1   7
BRANCH   6  11
ATOM     11  C   UNL     1     -29.117   7.057  -5.924  1.00  0.00     0.339 C 
ATOM     12  O   UNL     1     -29.211   7.592  -7.058  1.00  0.00    -0.246 OA
BRANCH  11  13
ATOM     13  O   UNL     1     -29.419   5.732  -5.780  1.00  0.00    -0.478 OA
ATOM     14  H   UNL     1     -29.292   5.310  -4.954  1.00  0.00     0.297 HD
ENDBRANCH  11  13
ENDBRANCH   6  11
TORSDOF 4
ENDMDL
MODEL 5
REMARK VINA RESULT:      -4.5      1.784      3.314
REMARK SMILES CC(=O)Oc1ccccc1C(=O)O
REMARK SMILES IDX 5 1 6 2 7 3 8 4 9 5 10 6 4 7 2 8 1 9 3 10 11 11 12 12 13 13
REMARK H PARENT 13 14
ROOT
ATOM      1  C   UNL     1     -26.880   6.255  -4.203  1.00  0.00     0.145 A 
ATOM      2  C   UNL     1     -25.766   5.716  -3.578  1.00  0.00     0.048 A 
ATOM      3  C   UNL     1     -25.685   4.325  -3.484  1.00  0.00     0.004 A 
ATOM      4  C   UNL     1     -26.653   3.506  -3.979  1.00  0.00     0.001 A 
ATOM      5  C   UNL     1     -27.757   4.084  -4.600  1.00  0.00     0.019 A 
ATOM      6  C   UNL     1     -27.881   5.455  -4.717  1.00  0.00     0.102 A 
ENDROOT
BRANCH   1   7
ATOM      7  O   UNL     1     -27.040   7.628  -4.340  1.00  0.00    -0.426 OA
BRANCH   7   8
ATOM      8  C   UNL     1     -27.349   8.434  -3.254  1.00  0.00     0.308 C 
ATOM      9  C   UNL     1     -28.745   8.692  -2.803  1.00  0.00     0.139 C 
ATOM     10  O   UNL     1     -26.346   8.946  -2.655  1.00  0.00    -0.252 OA
ENDBRANCH   7   8
ENDBRANCH   1   7
BRANCH   6  11
ATOM     11  C   UNL     1     -29.053   6.024  -5.374  1.00  0.00     0.339 C 
ATOM     12  O   UNL     1     -30.204   5.754  -4.947  1.00  0.00    -0.246 OA
BRANCH  11  13
ATOM     13  O   UNL     1     -28.914   6.849  -6.454  1.00  0.00    -0.478 OA
ATOM     14  H   UNL     1     -28.614   6.504  -7.272  1.00  0.00     0.297 HD
ENDBRANCH  11  13
ENDBRANCH   6  11
TORSDOF 4
ENDMDL
MODEL 6
REMARK VINA RESULT:      -4.3     10.416     12.297
REMARK SMILES CC(=O)Oc1ccccc1C(=O)O
REMARK SMILES IDX 5 1 6 2 7 3 8 4 9 5 10 6 4 7 2 8 1 9 3 10 11 11 12 12 13 13
REMARK H PARENT 13 14
ROOT
ATOM      1  C   UNL     1     -16.740   5.813   2.902  1.00  0.00     0.145 A 
ATOM      2  C   UNL     1     -17.000   4.865   1.925  1.00  0.00     0.048 A 
ATOM      3  C   UNL     1     -16.154   3.755   1.856  1.00  0.00     0.004 A 
ATOM      4  C   UNL     1     -15.105   3.589   2.707  1.00  0.00     0.001 A 
ATOM      5  C   UNL     1     -14.875   4.562   3.675  1.00  0.00     0.019 A 
ATOM      6  C   UNL     1     -15.684   5.676   3.782  1.00  0.00     0.102 A 
ENDROOT
BRANCH   1   7
ATOM      7  O   UNL     1     -17.531   6.947   3.040  1.00  0.00    -0.426 OA
BRANCH   7   8
ATOM      8  C   UNL     1     -17.631   7.888   2.027  1.00  0.00     0.308 C 
ATOM      9  C   UNL     1     -18.789   7.959   1.093  1.00  0.00     0.139 C 
ATOM     10  O   UNL     1     -16.654   8.703   1.945  1.00  0.00    -0.252 OA
ENDBRANCH   7   8
ENDBRANCH   1   7
BRANCH   6  11
ATOM     11  C   UNL     1     -15.412   6.675   4.810  1.00  0.00     0.339 C 
ATOM     12  O   UNL     1     -15.370   6.334   6.019  1.00  0.00    -0.246 OA
BRANCH  11  13
ATOM     13  O   UNL     1     -15.204   7.983   4.474  1.00  0.00    -0.478 OA
ATOM     14  H   UNL     1     -15.698   8.372   3.780  1.00  0.00     0.297 HD
ENDBRANCH  11  13
ENDBRANCH   6  11
TORSDOF 4
ENDMDL
MODEL 7
REMARK VINA RESULT:      -4.2      2.373      3.359
REMARK SMILES CC(=O)Oc1ccccc1C(=O)O
REMARK SMILES IDX 5 1 6 2 7 3 8 4 9 5 10 6 4 7 2 8 1 9 3 10 11 11 12 12 13 13
REMARK H PARENT 13 14
ROOT
ATOM      1  C   UNL     1     -27.007   5.888  -4.433  1.00  0.00     0.145 A 
ATOM      2  C   UNL     1     -26.273   6.805  -3.697  1.00  0.00     0.048 A 
ATOM      3  C   UNL     1     -25.335   6.306  -2.789  1.00  0.00     0.004 A 
ATOM      4  C   UNL     1     -25.131   4.972  -2.617  1.00  0.00     0.001 A 
ATOM      5  C   UNL     1     -25.887   4.082  -3.374  1.00  0.00     0.019 A 
ATOM      6  C   UNL     1     -26.827   4.527  -4.284  1.00  0.00     0.102 A 
ENDROOT
BRANCH   1   7
ATOM      7  O   UNL     1     -27.960   6.299  -5.357  1.00  0.00    -0.426 OA
BRANCH   7   8
ATOM      8  C   UNL     1     -29.057   7.059  -4.979  1.00  0.00     0.308 C 
ATOM      9  C   UNL     1     -29.208   8.499  -5.329  1.00  0.00     0.139 C 
ATOM     10  O   UNL     1     -29.941   6.438  -4.301  1.00  0.00    -0.252 OA
ENDBRANCH   7   8
ENDBRANCH   1   7
BRANCH   6  11
ATOM     11  C   UNL     1     -27.600   3.564  -5.060  1.00  0.00     0.339 C 
ATOM     12  O   UNL     1     -27.035   2.548  -5.540  1.00  0.00    -0.246 OA
BRANCH  11  13
ATOM     13  O   UNL     1     -28.936   3.754  -5.275  1.00  0.00    -0.478 OA
ATOM     14  H   UNL     1     -29.533   3.041  -5.171  1.00  0.00     0.297 HD
ENDBRANCH  11  13
ENDBRANCH   6  11
TORSDOF 4
ENDMDL
MODEL 8
REMARK VINA RESULT:      -4.2      9.624     11.559
REMARK SMILES CC(=O)Oc1ccccc1C(=O)O
REMARK SMILES IDX 5 1 6 2 7 3 8 4 9 5 10 6 4 7 2 8 1 9 3 10 11 11 12 12 13 13
REMARK H PARENT 13 14
ROOT
ATOM      1  C   UNL     1     -17.914   6.188   2.545  1.00  0.00     0.145 A 
ATOM      2  C   UNL     1     -19.138   5.836   1.997  1.00  0.00     0.048 A 
ATOM      3  C   UNL     1     -19.741   6.742   1.121  1.00  0.00     0.004 A 
ATOM      4  C   UNL     1     -19.167   7.934   0.802  1.00  0.00     0.001 A 
ATOM      5  C   UNL     1     -17.938   8.253   1.373  1.00  0.00     0.019 A 
ATOM      6  C   UNL     1     -17.303   7.389   2.245  1.00  0.00     0.102 A 
ENDROOT
BRANCH   1   7
ATOM      7  O   UNL     1     -17.246   5.346   3.425  1.00  0.00    -0.426 OA
BRANCH   7   8
ATOM      8  C   UNL     1     -16.727   4.128   3.011  1.00  0.00     0.308 C 
ATOM      9  C   UNL     1     -17.228   2.818   3.513  1.00  0.00     0.139 C 
ATOM     10  O   UNL     1     -15.781   4.202   2.160  1.00  0.00    -0.252 OA
ENDBRANCH   7   8
ENDBRANCH   1   7
BRANCH   6  11
ATOM     11  C   UNL     1     -16.015   7.758   2.823  1.00  0.00     0.339 C 
ATOM     12  O   UNL     1     -15.949   8.692   3.660  1.00  0.00    -0.246 OA
BRANCH  11  13
ATOM     13  O   UNL     1     -14.875   7.098   2.461  1.00  0.00    -0.478 OA
ATOM     14  H   UNL     1     -14.400   7.365   1.699  1.00  0.00     0.297 HD
ENDBRANCH  11  13
ENDBRANCH   6  11
TORSDOF 4
ENDMDL
MODEL 9
REMARK VINA RESULT:      -4.2      7.529      9.565
REMARK SMILES CC(=O)Oc1ccccc1C(=O)O
REMARK SMILES IDX 5 1 6 2 7 3 8 4 9 5 10 6 4 7 2 8 1 9 3 10 11 11 12 12 13 13
REMARK H PARENT 13 14
ROOT
ATOM      1  C   UNL     1     -18.930   4.713   2.360  1.00  0.00     0.145 A 
ATOM      2  C   UNL     1     -17.635   4.323   2.662  1.00  0.00     0.048 A 
ATOM      3  C   UNL     1     -17.271   3.005   2.378  1.00  0.00     0.004 A 
ATOM      4  C   UNL     1     -18.140   2.115   1.825  1.00  0.00     0.001 A 
ATOM      5  C   UNL     1     -19.432   2.543   1.536  1.00  0.00     0.019 A 
ATOM      6  C   UNL     1     -19.839   3.837   1.798  1.00  0.00     0.102 A 
ENDROOT
BRANCH   1   7
ATOM      7  O   UNL     1     -19.375   6.005   2.610  1.00  0.00    -0.426 OA
BRANCH   7   8
ATOM      8  C   UNL     1     -18.721   7.111   2.087  1.00  0.00     0.308 C 
ATOM      9  C   UNL     1     -19.007   7.659   0.732  1.00  0.00     0.139 C 
ATOM     10  O   UNL     1     -17.847   7.636   2.852  1.00  0.00    -0.252 OA
ENDBRANCH   7   8
ENDBRANCH   1   7
BRANCH   6  11
ATOM     11  C   UNL     1     -21.202   4.249   1.481  1.00  0.00     0.339 C 
ATOM     12  O   UNL     1     -22.165   3.802   2.154  1.00  0.00    -0.246 OA
BRANCH  11  13
ATOM     13  O   UNL     1     -21.446   5.116   0.454  1.00  0.00    -0.478 OA
ATOM     14  H   UNL     1     -20.733   5.535   0.014  1.00  0.00     0.297 HD
ENDBRANCH  11  13
ENDBRANCH   6  11
TORSDOF 4
ENDMDL
