MODEL 1
REMARK VINA RESULT:      -5.8      0.000      0.000
REMARK SMILES CCC[S@](=O)c1ccc2[nH]/c(=N\C(=O)OC)[nH]c2c1
REMARK SMILES IDX 6 1 7 2 8 3 9 4 10 5 11 6 17 7 18 8 19 9 4 12 5 13 3 14 2 15
REMARK SMILES IDX 1 16 12 17 13 18 14 19 15 20 16 21
REMARK H PARENT 10 10 17 11
ROOT
ATOM      1  C   UNL     1     -17.098   7.599   2.195  1.00  0.00     0.041 A 
ATOM      2  C   UNL     1     -17.759   8.401   1.309  1.00  0.00     0.020 A 
ATOM      3  C   UNL     1     -18.990   8.030   0.762  1.00  0.00     0.029 A 
ATOM      4  C   UNL     1     -19.564   6.819   1.123  1.00  0.00     0.065 A 
ATOM      5  N   UNL     1     -20.720   6.237   0.750  1.00  0.00    -0.324 N 
ATOM      6  C   UNL     1     -20.758   5.057   1.426  1.00  0.00     0.211 A 
ATOM      7  N   UNL     1     -19.659   4.926   2.188  1.00  0.00    -0.324 N 
ATOM      8  C   UNL     1     -18.893   6.020   2.016  1.00  0.00     0.066 A 
ATOM      9  C   UNL     1     -17.669   6.394   2.556  1.00  0.00     0.046 A 
ATOM     10  H   UNL     1     -21.392   6.590   0.122  1.00  0.00     0.170 HD
ATOM     11  H   UNL     1     -19.450   4.162   2.772  1.00  0.00     0.170 HD
ENDROOT
BRANCH   1  12
ATOM     12  S   UNL     1     -15.523   8.082   2.890  1.00  0.00     0.053 S 
ATOM     13  O   UNL     1     -15.921   8.868   4.152  1.00  0.00    -0.254 OA
BRANCH  12  14
ATOM     14  C   UNL     1     -14.900   6.510   3.585  1.00  0.00     0.110 C 
BRANCH  14  15
ATOM     15  C   UNL     1     -13.399   6.600   3.619  1.00  0.00     0.010 C 
ATOM     16  C   UNL     1     -12.978   7.573   2.539  1.00  0.00     0.005 C 
ENDBRANCH  14  15
ENDBRANCH  12  14
ENDBRANCH   1  12
BRANCH   6  17
ATOM     17  N   UNL     1     -21.754   4.245   1.288  1.00  0.00    -0.140 NA
BRANCH  17  18
ATOM     18  C   UNL     1     -23.078   4.675   0.994  1.00  0.00     0.436 C 
ATOM     19  O   UNL     1     -24.008   4.092   1.615  1.00  0.00    -0.222 OA
BRANCH  18  20
ATOM     20  O   UNL     1     -23.389   5.664   0.092  1.00  0.00    -0.451 OA
ATOM     21  C   UNL     1     -23.605   5.388  -1.294  1.00  0.00     0.284 C 
ENDBRANCH  18  20
ENDBRANCH  17  18
ENDBRANCH   6  17
TORSDOF 6
ENDMDL
MODEL 2
REMARK VINA RESULT:      -5.7      0.735      1.378
REMARK SMILES CCC[S@](=O)c1ccc2[nH]/c(=N\C(=O)OC)[nH]c2c1
REMARK SMILES IDX 6 1 7 2 8 3 9 4 10 5 11 6 17 7 18 8 19 9 4 12 5 13 3 14 2 15
REMARK SMILES IDX 1 16 12 17 13 18 14 19 15 20 16 21
REMARK H PARENT 10 10 17 11
ROOT
ATOM      1  C   UNL     1     -17.026   7.443   2.260  1.00  0.00     0.041 A 
ATOM      2  C   UNL     1     -17.730   8.242   1.404  1.00  0.00     0.020 A 
ATOM      3  C   UNL     1     -18.973   7.855   0.896  1.00  0.00     0.029 A 
ATOM      4  C   UNL     1     -19.515   6.632   1.265  1.00  0.00     0.065 A 
ATOM      5  N   UNL     1     -20.673   6.033   0.926  1.00  0.00    -0.324 N 
ATOM      6  C   UNL     1     -20.669   4.847   1.593  1.00  0.00     0.211 A 
ATOM      7  N   UNL     1     -19.542   4.728   2.315  1.00  0.00    -0.324 N 
ATOM      8  C   UNL     1     -18.801   5.836   2.127  1.00  0.00     0.066 A 
ATOM      9  C   UNL     1     -17.565   6.226   2.628  1.00  0.00     0.046 A 
ATOM     10  H   UNL     1     -21.372   6.381   0.325  1.00  0.00     0.170 HD
ATOM     11  H   UNL     1     -19.300   3.962   2.884  1.00  0.00     0.170 HD
ENDROOT
BRANCH   1  12
ATOM     12  S   UNL     1     -15.437   7.946   2.904  1.00  0.00     0.053 S 
ATOM     13  O   UNL     1     -15.804   9.004   3.961  1.00  0.00    -0.254 OA
BRANCH  12  14
ATOM     14  C   UNL     1     -14.957   6.513   3.933  1.00  0.00     0.110 C 
BRANCH  14  15
ATOM     15  C   UNL     1     -13.585   6.084   3.489  1.00  0.00     0.010 C 
ATOM     16  C   UNL     1     -13.033   7.175   2.598  1.00  0.00     0.005 C 
ENDBRANCH  14  15
ENDBRANCH  12  14
ENDBRANCH   1  12
BRANCH   6  17
ATOM     17  N   UNL     1     -21.655   4.019   1.481  1.00  0.00    -0.140 NA
BRANCH  17  18
ATOM     18  C   UNL     1     -22.998   4.430   1.250  1.00  0.00     0.436 C 
ATOM     19  O   UNL     1     -23.260   4.865   0.097  1.00  0.00    -0.222 OA
BRANCH  18  20
ATOM     20  O   UNL     1     -23.996   4.381   2.194  1.00  0.00    -0.451 OA
ATOM     21  C   UNL     1     -23.980   3.437   3.268  1.00  0.00     0.284 C 
ENDBRANCH  18  20
ENDBRANCH  17  18
ENDBRANCH   6  17
TORSDOF 6
ENDMDL
MODEL 3
REMARK VINA RESULT:      -5.6      1.876      2.425
REMARK SMILES CCC[S@](=O)c1ccc2[nH]/c(=N\C(=O)OC)[nH]c2c1
REMARK SMILES IDX 6 1 7 2 8 3 9 4 10 5 11 6 17 7 18 8 19 9 4 12 5 13 3 14 2 15
REMARK SMILES IDX 1 16 12 17 13 18 14 19 15 20 16 21
REMARK H PARENT 10 10 17 11
ROOT
ATOM      1  C   UNL     1     -15.846   6.921   2.952  1.00  0.00     0.041 A 
ATOM      2  C   UNL     1     -15.412   7.580   1.837  1.00  0.00     0.020 A 
ATOM      3  C   UNL     1     -16.288   7.935   0.808  1.00  0.00     0.029 A 
ATOM      4  C   UNL     1     -17.635   7.616   0.913  1.00  0.00     0.065 A 
ATOM      5  N   UNL     1     -18.669   7.841   0.080  1.00  0.00    -0.324 N 
ATOM      6  C   UNL     1     -19.752   7.305   0.706  1.00  0.00     0.211 A 
ATOM      7  N   UNL     1     -19.387   6.772   1.883  1.00  0.00    -0.324 N 
ATOM      8  C   UNL     1     -18.063   6.954   2.038  1.00  0.00     0.066 A 
ATOM      9  C   UNL     1     -17.186   6.603   3.057  1.00  0.00     0.046 A 
ATOM     10  H   UNL     1     -18.645   8.294  -0.794  1.00  0.00     0.170 HD
ATOM     11  H   UNL     1     -19.986   6.325   2.524  1.00  0.00     0.170 HD
ENDROOT
BRANCH   1  12
ATOM     12  S   UNL     1     -14.718   6.470   4.264  1.00  0.00     0.053 S 
ATOM     13  O   UNL     1     -15.485   6.865   5.539  1.00  0.00    -0.254 OA
BRANCH  12  14
ATOM     14  C   UNL     1     -14.841   4.646   4.280  1.00  0.00     0.110 C 
BRANCH  14  15
ATOM     15  C   UNL     1     -14.180   4.142   3.026  1.00  0.00     0.010 C 
ATOM     16  C   UNL     1     -15.202   3.316   2.274  1.00  0.00     0.005 C 
ENDBRANCH  14  15
ENDBRANCH  12  14
ENDBRANCH   1  12
BRANCH   6  17
ATOM     17  N   UNL     1     -20.924   7.353   0.162  1.00  0.00    -0.140 NA
BRANCH  17  18
ATOM     18  C   UNL     1     -21.814   6.244   0.125  1.00  0.00     0.436 C 
ATOM     19  O   UNL     1     -21.396   5.172   0.639  1.00  0.00    -0.222 OA
BRANCH  18  20
ATOM     20  O   UNL     1     -23.072   6.279  -0.427  1.00  0.00    -0.451 OA
ATOM     21  C   UNL     1     -23.551   5.246  -1.293  1.00  0.00     0.284 C 
ENDBRANCH  18  20
ENDBRANCH  17  18
ENDBRANCH   6  17
TORSDOF 6
ENDMDL
MODEL 4
REMARK VINA RESULT:      -5.4      6.802     11.093
REMARK SMILES CCC[S@](=O)c1ccc2[nH]/c(=N\C(=O)OC)[nH]c2c1
REMARK SMILES IDX 6 1 7 2 8 3 9 4 10 5 11 6 17 7 18 8 19 9 4 12 5 13 3 14 2 15
REMARK SMILES IDX 1 16 12 17 13 18 14 19 15 20 16 21
REMARK H PARENT 10 10 17 11
ROOT
ATOM      1  C   UNL     1     -27.532   3.409  -4.616  1.00  0.00     0.041 A 
ATOM      2  C   UNL     1     -27.860   4.693  -4.950  1.00  0.00     0.020 A 
ATOM      3  C   UNL     1     -27.222   5.789  -4.364  1.00  0.00     0.029 A 
ATOM      4  C   UNL     1     -26.228   5.579  -3.418  1.00  0.00     0.065 A 
ATOM      5  N   UNL     1     -25.471   6.444  -2.716  1.00  0.00    -0.324 N 
ATOM      6  C   UNL     1     -24.668   5.666  -1.940  1.00  0.00     0.211 A 
ATOM      7  N   UNL     1     -24.929   4.367  -2.164  1.00  0.00    -0.324 N 
ATOM      8  C   UNL     1     -25.904   4.285  -3.088  1.00  0.00     0.066 A 
ATOM      9  C   UNL     1     -26.543   3.200  -3.675  1.00  0.00     0.046 A 
ATOM     10  H   UNL     1     -25.495   7.428  -2.756  1.00  0.00     0.170 HD
ATOM     11  H   UNL     1     -24.483   3.606  -1.728  1.00  0.00     0.170 HD
ENDROOT
BRANCH   1  12
ATOM     12  S   UNL     1     -28.355   2.014  -5.371  1.00  0.00     0.053 S 
ATOM     13  O   UNL     1     -29.557   2.658  -6.086  1.00  0.00    -0.254 OA
BRANCH  12  14
ATOM     14  C   UNL     1     -27.241   1.607  -6.763  1.00  0.00     0.110 C 
BRANCH  14  15
ATOM     15  C   UNL     1     -26.188   0.673  -6.235  1.00  0.00     0.010 C 
ATOM     16  C   UNL     1     -26.842  -0.210  -5.194  1.00  0.00     0.005 C 
ENDBRANCH  14  15
ENDBRANCH  12  14
ENDBRANCH   1  12
BRANCH   6  17
ATOM     17  N   UNL     1     -23.809   6.196  -1.134  1.00  0.00    -0.140 NA
BRANCH  17  18
ATOM     18  C   UNL     1     -23.074   5.447  -0.172  1.00  0.00     0.436 C 
ATOM     19  O   UNL     1     -21.921   5.872   0.108  1.00  0.00    -0.222 OA
BRANCH  18  20
ATOM     20  O   UNL     1     -23.544   4.315   0.451  1.00  0.00    -0.451 OA
ATOM     21  C   UNL     1     -23.065   3.899   1.733  1.00  0.00     0.284 C 
ENDBRANCH  18  20
ENDBRANCH  17  18
ENDBRANCH   6  17
TORSDOF 6
ENDMDL
MODEL 5
REMARK VINA RESULT:      -5.2      7.457     12.182
REMARK SMILES CCC[S@](=O)c1ccc2[nH]/c(=N\C(=O)OC)[nH]c2c1
REMARK SMILES IDX 6 1 7 2 8 3 9 4 10 5 11 6 17 7 18 8 19 9 4 12 5 13 3 14 2 15
REMARK SMILES IDX 1 16 12 17 13 18 14 19 15 20 16 21
REMARK H PARENT 10 10 17 11
ROOT
ATOM      1  C   UNL     1     -27.869   0.832  -5.247  1.00  0.00     0.041 A 
ATOM      2  C   UNL     1     -28.549   0.706  -4.069  1.00  0.00     0.020 A 
ATOM      3  C   UNL     1     -28.332   1.579  -3.000  1.00  0.00     0.029 A 
ATOM      4  C   UNL     1     -27.405   2.604  -3.129  1.00  0.00     0.065 A 
ATOM      5  N   UNL     1     -27.015   3.563  -2.268  1.00  0.00    -0.324 N 
ATOM      6  C   UNL     1     -26.078   4.285  -2.941  1.00  0.00     0.211 A 
ATOM      7  N   UNL     1     -25.905   3.780  -4.174  1.00  0.00    -0.324 N 
ATOM      8  C   UNL     1     -26.727   2.724  -4.317  1.00  0.00     0.066 A 
ATOM      9  C   UNL     1     -26.947   1.852  -5.376  1.00  0.00     0.046 A 
ATOM     10  H   UNL     1     -27.338   3.709  -1.349  1.00  0.00     0.170 HD
ATOM     11  H   UNL     1     -25.284   4.124  -4.855  1.00  0.00     0.170 HD
ENDROOT
BRANCH   1  12
ATOM     12  S   UNL     1     -28.154  -0.290  -6.610  1.00  0.00     0.053 S 
ATOM     13  O   UNL     1     -27.951   0.602  -7.848  1.00  0.00    -0.254 OA
BRANCH  12  14
ATOM     14  C   UNL     1     -26.636  -1.309  -6.605  1.00  0.00     0.110 C 
BRANCH  14  15
ATOM     15  C   UNL     1     -26.508  -1.914  -5.234  1.00  0.00     0.010 C 
ATOM     16  C   UNL     1     -25.374  -2.914  -5.283  1.00  0.00     0.005 C 
ENDBRANCH  14  15
ENDBRANCH  12  14
ENDBRANCH   1  12
BRANCH   6  17
ATOM     17  N   UNL     1     -25.495   5.296  -2.386  1.00  0.00    -0.140 NA
BRANCH  17  18
ATOM     18  C   UNL     1     -24.114   5.309  -2.041  1.00  0.00     0.436 C 
ATOM     19  O   UNL     1     -23.333   4.716  -2.832  1.00  0.00    -0.222 OA
BRANCH  18  20
ATOM     20  O   UNL     1     -23.602   5.917  -0.919  1.00  0.00    -0.451 OA
ATOM     21  C   UNL     1     -22.893   5.185   0.085  1.00  0.00     0.284 C 
ENDBRANCH  18  20
ENDBRANCH  17  18
ENDBRANCH   6  17
TORSDOF 6
ENDMDL
MODEL 6
REMARK VINA RESULT:      -5.0      8.333     12.806
REMARK SMILES CCC[S@](=O)c1ccc2[nH]/c(=N\C(=O)OC)[nH]c2c1
REMARK SMILES IDX 6 1 7 2 8 3 9 4 10 5 11 6 17 7 18 8 19 9 4 12 5 13 3 14 2 15
REMARK SMILES IDX 1 16 12 17 13 18 14 19 15 20 16 21
REMARK H PARENT 10 10 17 11
ROOT
ATOM      1  C   UNL     1     -27.609  -0.648  -5.673  1.00  0.00     0.041 A 
ATOM      2  C   UNL     1     -27.159   0.126  -6.704  1.00  0.00     0.020 A 
ATOM      3  C   UNL     1     -26.718   1.436  -6.500  1.00  0.00     0.029 A 
ATOM      4  C   UNL     1     -26.734   1.973  -5.220  1.00  0.00     0.065 A 
ATOM      5  N   UNL     1     -26.370   3.185  -4.759  1.00  0.00    -0.324 N 
ATOM      6  C   UNL     1     -26.606   3.143  -3.420  1.00  0.00     0.211 A 
ATOM      7  N   UNL     1     -27.098   1.941  -3.077  1.00  0.00    -0.324 N 
ATOM      8  C   UNL     1     -27.188   1.187  -4.188  1.00  0.00     0.066 A 
ATOM      9  C   UNL     1     -27.625  -0.114  -4.399  1.00  0.00     0.046 A 
ATOM     10  H   UNL     1     -26.011   3.939  -5.281  1.00  0.00     0.170 HD
ATOM     11  H   UNL     1     -27.350   1.659  -2.168  1.00  0.00     0.170 HD
ENDROOT
BRANCH   1  12
ATOM     12  S   UNL     1     -28.171  -2.323  -5.945  1.00  0.00     0.053 S 
ATOM     13  O   UNL     1     -27.944  -2.530  -7.454  1.00  0.00    -0.254 OA
BRANCH  12  14
ATOM     14  C   UNL     1     -26.826  -3.315  -5.205  1.00  0.00     0.110 C 
BRANCH  14  15
ATOM     15  C   UNL     1     -25.656  -3.256  -6.148  1.00  0.00     0.010 C 
ATOM     16  C   UNL     1     -24.566  -4.138  -5.577  1.00  0.00     0.005 C 
ENDBRANCH  14  15
ENDBRANCH  12  14
ENDBRANCH   1  12
BRANCH   6  17
ATOM     17  N   UNL     1     -26.359   4.165  -2.669  1.00  0.00    -0.140 NA
BRANCH  17  18
ATOM     18  C   UNL     1     -25.092   4.811  -2.621  1.00  0.00     0.436 C 
ATOM     19  O   UNL     1     -24.347   4.660  -3.627  1.00  0.00    -0.222 OA
BRANCH  18  20
ATOM     20  O   UNL     1     -24.649   5.570  -1.564  1.00  0.00    -0.451 OA
ATOM     21  C   UNL     1     -23.367   5.365  -0.966  1.00  0.00     0.284 C 
ENDBRANCH  18  20
ENDBRANCH  17  18
ENDBRANCH   6  17
TORSDOF 6
ENDMDL
MODEL 7
REMARK VINA RESULT:      -5.0      1.882      2.414
REMARK SMILES CCC[S@](=O)c1ccc2[nH]/c(=N\C(=O)OC)[nH]c2c1
REMARK SMILES IDX 6 1 7 2 8 3 9 4 10 5 11 6 17 7 18 8 19 9 4 12 5 13 3 14 2 15
REMARK SMILES IDX 1 16 12 17 13 18 14 19 15 20 16 21
REMARK H PARENT 10 10 17 11
ROOT
ATOM      1  C   UNL     1     -17.179   7.581   2.033  1.00  0.00     0.041 A 
ATOM      2  C   UNL     1     -17.975   8.166   1.090  1.00  0.00     0.020 A 
ATOM      3  C   UNL     1     -19.197   7.602   0.711  1.00  0.00     0.029 A 
ATOM      4  C   UNL     1     -19.620   6.420   1.302  1.00  0.00     0.065 A 
ATOM      5  N   UNL     1     -20.734   5.684   1.120  1.00  0.00    -0.324 N 
ATOM      6  C   UNL     1     -20.607   4.631   1.973  1.00  0.00     0.211 A 
ATOM      7  N   UNL     1     -19.452   4.725   2.653  1.00  0.00    -0.324 N 
ATOM      8  C   UNL     1     -18.814   5.840   2.250  1.00  0.00     0.066 A 
ATOM      9  C   UNL     1     -17.600   6.405   2.623  1.00  0.00     0.046 A 
ATOM     10  H   UNL     1     -21.478   5.869   0.503  1.00  0.00     0.170 HD
ATOM     11  H   UNL     1     -19.127   4.088   3.329  1.00  0.00     0.170 HD
ENDROOT
BRANCH   1  12
ATOM     12  S   UNL     1     -15.618   8.309   2.512  1.00  0.00     0.053 S 
ATOM     13  O   UNL     1     -15.875   8.773   3.957  1.00  0.00    -0.254 OA
BRANCH  12  14
ATOM     14  C   UNL     1     -14.555   6.841   2.752  1.00  0.00     0.110 C 
BRANCH  14  15
ATOM     15  C   UNL     1     -13.145   7.254   2.436  1.00  0.00     0.010 C 
ATOM     16  C   UNL     1     -13.215   8.372   1.418  1.00  0.00     0.005 C 
ENDBRANCH  14  15
ENDBRANCH  12  14
ENDBRANCH   1  12
BRANCH   6  17
ATOM     17  N   UNL     1     -21.522   3.722   2.046  1.00  0.00    -0.140 NA
BRANCH  17  18
ATOM     18  C   UNL     1     -21.291   2.421   2.574  1.00  0.00     0.436 C 
ATOM     19  O   UNL     1     -22.311   1.711   2.783  1.00  0.00    -0.222 OA
BRANCH  18  20
ATOM     20  O   UNL     1     -20.047   1.911   2.862  1.00  0.00    -0.451 OA
ATOM     21  C   UNL     1     -19.469   0.845   2.104  1.00  0.00     0.284 C 
ENDBRANCH  18  20
ENDBRANCH  17  18
ENDBRANCH   6  17
TORSDOF 6
ENDMDL
MODEL 8
REMARK VINA RESULT:      -5.0     10.388     12.269
REMARK SMILES CCC[S@](=O)c1ccc2[nH]/c(=N\C(=O)OC)[nH]c2c1
REMARK SMILES IDX 6 1 7 2 8 3 9 4 10 5 11 6 17 7 18 8 19 9 4 12 5 13 3 14 2 15
REMARK SMILES IDX 1 16 12 17 13 18 14 19 15 20 16 21
REMARK H PARENT 10 10 17 11
ROOT
ATOM      1  C   UNL     1     -27.939   1.195  -3.720  1.00  0.00     0.041 A 
ATOM      2  C   UNL     1     -27.482   1.499  -2.469  1.00  0.00     0.020 A 
ATOM      3  C   UNL     1     -27.063   2.791  -2.136  1.00  0.00     0.029 A 
ATOM      4  C   UNL     1     -27.110   3.795  -3.093  1.00  0.00     0.065 A 
ATOM      5  N   UNL     1     -26.773   5.098  -3.032  1.00  0.00    -0.324 N 
ATOM      6  C   UNL     1     -27.033   5.591  -4.274  1.00  0.00     0.211 A 
ATOM      7  N   UNL     1     -27.514   4.617  -5.065  1.00  0.00    -0.324 N 
ATOM      8  C   UNL     1     -27.573   3.480  -4.347  1.00  0.00     0.066 A 
ATOM      9  C   UNL     1     -27.987   2.194  -4.672  1.00  0.00     0.046 A 
ATOM     10  H   UNL     1     -26.415   5.587  -2.256  1.00  0.00     0.170 HD
ATOM     11  H   UNL     1     -27.778   4.718  -6.008  1.00  0.00     0.170 HD
ENDROOT
BRANCH   1  12
ATOM     12  S   UNL     1     -28.473  -0.460  -4.135  1.00  0.00     0.053 S 
ATOM     13  O   UNL     1     -28.693  -0.387  -5.658  1.00  0.00    -0.254 OA
BRANCH  12  14
ATOM     14  C   UNL     1     -26.921  -1.418  -4.008  1.00  0.00     0.110 C 
BRANCH  14  15
ATOM     15  C   UNL     1     -26.193  -1.266  -5.315  1.00  0.00     0.010 C 
ATOM     16  C   UNL     1     -25.831  -2.654  -5.798  1.00  0.00     0.005 C 
ENDBRANCH  14  15
ENDBRANCH  12  14
ENDBRANCH   1  12
BRANCH   6  17
ATOM     17  N   UNL     1     -26.814   6.833  -4.554  1.00  0.00    -0.140 NA
BRANCH  17  18
ATOM     18  C   UNL     1     -26.881   7.875  -3.587  1.00  0.00     0.436 C 
ATOM     19  O   UNL     1     -25.855   8.046  -2.875  1.00  0.00    -0.222 OA
BRANCH  18  20
ATOM     20  O   UNL     1     -27.976   8.683  -3.394  1.00  0.00    -0.451 OA
ATOM     21  C   UNL     1     -29.142   8.593  -4.217  1.00  0.00     0.284 C 
ENDBRANCH  18  20
ENDBRANCH  17  18
ENDBRANCH   6  17
TORSDOF 6
ENDMDL
MODEL 9
REMARK VINA RESULT:      -4.8      2.951      3.687
REMARK SMILES CCC[S@](=O)c1ccc2[nH]/c(=N\C(=O)OC)[nH]c2c1
REMARK SMILES IDX 6 1 7 2 8 3 9 4 10 5 11 6 17 7 18 8 19 9 4 12 5 13 3 14 2 15
REMARK SMILES IDX 1 16 12 17 13 18 14 19 15 20 16 21
REMARK H PARENT 10 10 17 11
ROOT
ATOM      1  C   UNL     1     -17.805   3.362   3.851  1.00  0.00     0.041 A 
ATOM      2  C   UNL     1     -18.421   2.226   3.406  1.00  0.00     0.020 A 
ATOM      3  C   UNL     1     -19.462   2.275   2.475  1.00  0.00     0.029 A 
ATOM      4  C   UNL     1     -19.888   3.501   1.984  1.00  0.00     0.065 A 
ATOM      5  N   UNL     1     -20.851   3.819   1.098  1.00  0.00    -0.324 N 
ATOM      6  C   UNL     1     -20.816   5.177   1.006  1.00  0.00     0.211 A 
ATOM      7  N   UNL     1     -19.860   5.669   1.812  1.00  0.00    -0.324 N 
ATOM      8  C   UNL     1     -19.262   4.637   2.437  1.00  0.00     0.066 A 
ATOM      9  C   UNL     1     -18.227   4.583   3.363  1.00  0.00     0.046 A 
ATOM     10  H   UNL     1     -21.451   3.202   0.621  1.00  0.00     0.170 HD
ATOM     11  H   UNL     1     -19.635   6.620   1.925  1.00  0.00     0.170 HD
ENDROOT
BRANCH   1  12
ATOM     12  S   UNL     1     -16.473   3.289   5.041  1.00  0.00     0.053 S 
ATOM     13  O   UNL     1     -15.618   2.111   4.541  1.00  0.00    -0.254 OA
BRANCH  12  14
ATOM     14  C   UNL     1     -15.456   4.737   4.583  1.00  0.00     0.110 C 
BRANCH  14  15
ATOM     15  C   UNL     1     -15.380   5.631   5.789  1.00  0.00     0.010 C 
ATOM     16  C   UNL     1     -16.098   4.928   6.922  1.00  0.00     0.005 C 
ENDBRANCH  14  15
ENDBRANCH  12  14
ENDBRANCH   1  12
BRANCH   6  17
ATOM     17  N   UNL     1     -21.628   5.810   0.226  1.00  0.00    -0.140 NA
BRANCH  17  18
ATOM     18  C   UNL     1     -23.016   5.510   0.133  1.00  0.00     0.436 C 
ATOM     19  O   UNL     1     -23.506   4.827   1.073  1.00  0.00    -0.222 OA
BRANCH  18  20
ATOM     20  O   UNL     1     -23.828   5.914  -0.899  1.00  0.00    -0.451 OA
ATOM     21  C   UNL     1     -24.033   5.110  -2.064  1.00  0.00     0.284 C 
ENDBRANCH  18  20
ENDBRANCH  17  18
ENDBRANCH   6  17
TORSDOF 6
ENDMDL
