REMARK SMILES CCC[S@](=O)c1ccc2[nH]/c(=N\C(=O)OC)[nH]c2c1
REMARK SMILES IDX 6 1 7 2 8 3 9 4 10 5 11 6 17 7 18 8 19 9 4 12 5 13 3 14 2 15
REMARK SMILES IDX 1 16 12 17 13 18 14 19 15 20 16 21
REMARK H PARENT 10 10 17 11
ROOT
ATOM      1  C   UNL     1       2.129   0.199  -0.354  1.00  0.00     0.041 A 
ATOM      2  C   UNL     1       1.581   1.450  -0.385  1.00  0.00     0.020 A 
ATOM      3  C   UNL     1       0.201   1.648  -0.290  1.00  0.00     0.029 A 
ATOM      4  C   UNL     1      -0.642   0.553  -0.160  1.00  0.00     0.065 A 
ATOM      5  N   UNL     1      -1.982   0.470  -0.051  1.00  0.00    -0.324 N 
ATOM      6  C   UNL     1      -2.249  -0.861   0.048  1.00  0.00     0.211 A 
ATOM      7  N   UNL     1      -1.106  -1.565   0.001  1.00  0.00    -0.324 N 
ATOM      8  C   UNL     1      -0.082  -0.701  -0.129  1.00  0.00     0.066 A 
ATOM      9  C   UNL     1       1.291  -0.891  -0.224  1.00  0.00     0.046 A 
ATOM     10  H   UNL     1      -2.628   1.213  -0.045  1.00  0.00     0.170 HD
ATOM     11  H   UNL     1      -1.030  -2.545   0.053  1.00  0.00     0.170 HD
ENDROOT
BRANCH   1  12
ATOM     12  S   UNL     1       3.896  -0.044  -0.476  1.00  0.00     0.053 S 
ATOM     13  O   UNL     1       4.396   1.293  -1.053  1.00  0.00    -0.254 OA
BRANCH  12  14
ATOM     14  C   UNL     1       4.429   0.057   1.270  1.00  0.00     0.110 C 
BRANCH  14  15
ATOM     15  C   UNL     1       5.920  -0.136   1.294  1.00  0.00     0.010 C 
ATOM     16  C   UNL     1       6.212  -1.499   0.704  1.00  0.00     0.005 C 
ENDBRANCH  14  15
ENDBRANCH  12  14
ENDBRANCH   1  12
BRANCH   6  17
ATOM     17  N   UNL     1      -3.463  -1.287   0.167  1.00  0.00    -0.140 NA
BRANCH  17  18
ATOM     18  C   UNL     1      -4.594  -0.424   0.204  1.00  0.00     0.436 C 
ATOM     19  O   UNL     1      -5.722  -0.981   0.282  1.00  0.00    -0.222 OA
BRANCH  18  20
ATOM     20  O   UNL     1      -4.523   0.948   0.159  1.00  0.00    -0.451 OA
ATOM     21  C   UNL     1      -5.692   1.771   0.199  1.00  0.00     0.284 C 
ENDBRANCH  18  20
ENDBRANCH  17  18
ENDBRANCH   6  17
TORSDOF 6
