
 OpenBabel03012511443D

 21 21  0  0  0  0  0  0  0  0999 V2000
    2.9960   -1.9275    0.8912 C   0  0  0  0  0  0  0  0  0  0  0  0
    1.5879   -1.4937    0.6697 C   0  0  0  0  0  0  0  0  0  0  0  0
    0.6735   -1.7274    1.5273 O   0  0  0  0  0  0  0  0  0  0  0  0
    1.1742   -0.8153   -0.4662 O   0  0  0  0  0  0  0  0  0  0  0  0
   -0.1489   -0.4265   -0.6380 C   0  0  0  0  0  0  0  0  0  0  0  0
   -1.0707   -1.2554   -1.2583 C   0  0  0  0  0  0  0  0  0  0  0  0
   -2.3802   -0.7853   -1.3894 C   0  0  0  0  0  0  0  0  0  0  0  0
   -2.7606    0.4387   -0.9325 C   0  0  0  0  0  0  0  0  0  0  0  0
   -1.8073    1.2426   -0.3153 C   0  0  0  0  0  0  0  0  0  0  0  0
   -0.5001    0.8219   -0.1623 C   0  0  0  0  0  0  0  0  0  0  0  0
    0.4716    1.6928    0.4902 C   0  0  0  0  0  0  0  0  0  0  0  0
    1.6610    1.3113    0.6301 O   0  0  0  0  0  0  0  0  0  0  0  0
    0.1035    2.9237    0.9535 O   0  0  0  0  0  0  0  0  0  0  0  0
    3.0706   -2.4292    1.8333 H   0  0  0  0  0  0  0  0  0  0  0  0
    3.6372   -1.0709    0.8915 H   0  0  0  0  0  0  0  0  0  0  0  0
    3.2913   -2.5939    0.1079 H   0  0  0  0  0  0  0  0  0  0  0  0
   -0.7995   -2.1867   -1.6108 H   0  0  0  0  0  0  0  0  0  0  0  0
   -3.0823   -1.3866   -1.8481 H   0  0  0  0  0  0  0  0  0  0  0  0
   -3.7341    0.7634   -1.0413 H   0  0  0  0  0  0  0  0  0  0  0  0
   -2.0825    2.1732    0.0358 H   0  0  0  0  0  0  0  0  0  0  0  0
   -0.7809    3.2166    0.8537 H   0  0  0  0  0  0  0  0  0  0  0  0
  1  2  1  0  0  0  0
  1 14  1  0  0  0  0
  1 15  1  0  0  0  0
  1 16  1  0  0  0  0
  2  3  2  0  0  0  0
  2  4  1  0  0  0  0
  4  5  1  0  0  0  0
  5  6  2  0  0  0  0
  6  7  1  0  0  0  0
  6 17  1  0  0  0  0
  7  8  2  0  0  0  0
  7 18  1  0  0  0  0
  8  9  1  0  0  0  0
  8 19  1  0  0  0  0
  9 10  2  0  0  0  0
  9 20  1  0  0  0  0
 10 11  1  0  0  0  0
 10  5  1  0  0  0  0
 11 12  2  0  0  0  0
 11 13  1  0  0  0  0
 13 21  1  0  0  0  0
M  END
>  <zinc_id>
ZINC000000000053

>  <smiles>
CC(=O)Oc1ccccc1C(=O)O

$$$$
